26
id_2_ca.log	Energy: -634480.4840719
C         -2.87324       -0.92842        0.28900
H         -2.87974       -0.53306        1.31367
H         -2.26757       -1.83626        0.26654
C         -2.31936        0.11265       -0.67809
C         -0.94051        0.65617       -0.31328
C          0.13536       -0.42972       -0.13898
C          1.53290        0.16568       -0.32931
C          2.61558       -0.88740       -0.14174
H          2.48594       -1.67909       -0.88578
H          2.55215       -1.33632        0.85183
S          4.30428       -0.23989       -0.39659
H          4.38992        0.43911        0.76075
O          1.67123        1.23100        0.61407
H          2.36023        1.84278        0.30784
O          0.00893       -1.05809        1.12866
H         -0.25387       -0.37018        1.76671
O         -1.08775        1.40116        0.89456
H         -0.23986        1.85799        1.04771
O         -3.24447        1.19468       -0.78321
H         -3.17713        1.71506        0.03713
O         -4.18993       -1.30340       -0.10200
H         -4.69770       -0.48146       -0.21287
H         -2.26242       -0.32823       -1.67869
H         -0.63140        1.32866       -1.12389
H         -0.00461       -1.20711       -0.89937
H          1.58908        0.56968       -1.34828
