17
id_1500_cb.log	Energy: -299028.1413555
C         -2.83393        0.51288        0.00000
H         -3.91919        0.47683        0.00000
C         -2.16585        1.75842        0.00000
H         -2.74561        2.67772        0.00000
C         -0.78816        1.82164        0.00000
H         -0.27676        2.78098        0.00000
C          0.00000        0.63938        0.00000
C         -0.68054       -0.60978        0.00000
C         -2.09313       -0.65122        0.00000
H         -2.58483       -1.62206        0.00000
C          0.13164       -1.78742       -0.00000
H         -0.34978       -2.76373        0.00000
C          1.48429       -1.67040       -0.00000
H          2.13168       -2.54281       -0.00000
C          2.11611       -0.35708       -0.00000
N          1.36177        0.75379       -0.00000
O          3.39869       -0.27774       -0.00000
