13
id_1885_ca.log	Energy: -816210.8690621
C         -1.22979        0.07608       -0.90681
H         -1.25927       -0.55158       -1.80419
H         -1.05285        1.11044       -1.22033
C         -0.09611       -0.42242       -0.04119
O         -0.25891       -1.09405        0.94829
C          1.30498       -0.01684       -0.52161
H          1.36121       -0.00773       -1.60970
Cl         1.57304        1.66178        0.04204
Cl         2.55126       -1.10645        0.09679
C         -2.53932       -0.02521       -0.16859
O         -3.43197       -0.79878       -0.44493
O         -2.60271        0.84316        0.84488
H         -3.45205        0.73604        1.31720
