20
id_1858_ca.log	Energy: -359730.9491966
C          3.65644        1.14969        0.00030
H          3.40224        1.74493       -0.88314
H          4.72450        0.92930        0.00048
H          3.40188        1.74472        0.88377
C          2.88160       -0.13659       -0.00003
O          3.45188       -1.22071       -0.00025
C          1.38180       -0.08127       -0.00004
C          0.70046        1.14038       -0.00015
H          1.24606        2.07819       -0.00024
C         -0.69116        1.16595       -0.00014
H         -1.21489        2.11550       -0.00023
C         -1.40469       -0.03487       -0.00002
C         -0.72860       -1.25958        0.00008
H         -1.29392       -2.18598        0.00017
C          0.65903       -1.28089        0.00006
H          1.19071       -2.22685        0.00014
C         -2.89391       -0.05110        0.00002
O         -3.56332       -1.06842        0.00011
O         -3.43980        1.17020       -0.00003
H         -4.41253        1.08138        0.00002
