30
id_1392_ca.log	Energy: -337933.0535169
C         -3.84837       -1.08896        0.13604
H         -4.46666       -1.97156        0.25779
C         -2.53818       -1.05621        0.59906
H         -2.10040       -1.91878        1.09551
C         -1.78629        0.10527        0.42474
C         -2.40059        1.17895       -0.22002
H         -1.84114        2.10063       -0.37136
N         -3.65793        1.16737       -0.67391
C         -4.35964        0.04260       -0.49132
H         -5.38063        0.04641       -0.86335
C         -0.34707        0.19467        0.86237
H         -0.19462       -0.38563        1.77913
H         -0.08792        1.23752        1.07069
C          0.55381       -0.35613       -0.23861
H          0.49337        0.24946       -1.14687
H          0.28972       -1.38923       -0.47835
N          1.98716       -0.36400        0.17513
C          2.90342       -0.98649       -0.83765
H          2.71596       -2.05957       -0.87037
H          2.65804       -0.52935       -1.79987
C          4.27518       -0.57040       -0.33759
H          4.56426       -1.20153        0.50783
H          5.03209       -0.66804       -1.11675
C          4.06687        0.88739        0.11273
H          4.30373        1.57608       -0.70029
H          4.69331        1.14163        0.96829
C          2.57064        1.00179        0.45877
H          2.04685        1.70660       -0.18908
H          2.36828        1.24677        1.50041
H          2.06247       -0.91995        1.03693
