36
id_1496_ca.log	Energy: -457593.7086546
C         -4.59914       -0.29694       -1.02852
H         -5.61346        0.03237       -1.26741
H         -4.67098       -1.27105       -0.53787
H         -4.05391       -0.40901       -1.96904
C         -3.97655        0.74979       -0.12689
H         -4.51723        0.83901        0.81601
H         -3.96163        1.73093       -0.60416
N         -2.54222        0.45315        0.23361
C         -2.34749       -0.87170        0.91967
H         -2.52910       -1.64489        0.17031
H         -1.29477       -0.90594        1.20465
C         -3.23760       -1.02366        2.13692
H         -2.93013       -1.92371        2.67463
H         -4.29122       -1.13314        1.86911
H         -3.12766       -0.16975        2.81269
C         -1.62424        0.60211       -0.95686
H         -1.81141       -0.25007       -1.61073
H         -1.93127        1.51975       -1.46306
C         -0.18247        0.68384       -0.54819
C          0.36319        1.91833       -0.10158
H         -0.29645        2.78174       -0.06289
C          1.67769        2.03967        0.26469
H          2.08201        2.98903        0.60105
C          2.53255        0.90792        0.19363
C          3.90732        0.93313        0.54168
H          4.35138        1.86252        0.88697
C          4.64759       -0.21530        0.43528
H          5.70066       -0.23586        0.69198
C          4.02002       -1.39974       -0.02037
H          4.59877       -2.31552       -0.10769
N          2.74949       -1.46820       -0.35407
C          2.01236       -0.32967       -0.25007
C          0.63541       -0.42376       -0.61733
O          0.15425       -1.62079       -1.02732
H          0.90797       -2.24597       -1.00684
H         -2.26831        1.17717        0.91167
