16
id_1536_cb.log	Energy: -309100.0227973
C         -2.82553        0.42822        0.00000
H         -3.90913        0.36450        0.00000
C         -2.19201        1.69707       -0.00000
H         -2.80508        2.59450       -0.00000
C         -0.82030        1.81562       -0.00000
H         -0.34269        2.79178       -0.00000
C          0.00000        0.65336       -0.00000
C         -0.64393       -0.60825        0.00000
C         -2.05389       -0.71162        0.00000
H         -2.50866       -1.70007        0.00000
C          0.22620       -1.73187        0.00000
H         -0.20522       -2.73411        0.00000
N          1.52686       -1.64079        0.00000
C          2.09372       -0.35512       -0.00000
N          1.35288        0.76861       -0.00000
O          3.36338       -0.29197       -0.00000
