22
id_1141_ca.log	Energy: -277173.6331752
C          4.12200        0.01559        0.01385
H          4.85552       -0.79460        0.01936
H          4.27559        0.63062        0.90461
H          4.29027        0.63182       -0.87343
C          2.72581       -0.56301        0.00220
H          2.54329       -1.17931        0.89019
H          2.55766       -1.17881       -0.88899
O          1.81198        0.53821       -0.00466
C          0.48288        0.26407       -0.00572
C         -0.36604        1.37902       -0.00572
H          0.07200        2.37121       -0.00756
C         -1.74007        1.20930       -0.00602
H         -2.40361        2.06890       -0.00733
C         -2.25673       -0.08100       -0.00766
C         -1.43662       -1.19538       -0.01107
H         -1.86500       -2.19331       -0.01659
C         -0.05337       -1.02705       -0.01049
H          0.58494       -1.90182       -0.01623
N         -3.71495       -0.26325        0.01961
H         -3.99817       -1.11468       -0.48217
H         -4.19971        0.52988       -0.41987
H         -4.07104       -0.34218        0.98175
