14
id_1507_ca.log	Energy: -240059.1314242
C          0.00000       -1.79077       -0.00000
H          0.00000       -2.87695        0.00000
C         -1.21473       -1.10812       -0.00000
H         -2.16330       -1.63538        0.00000
C         -1.20049        0.28709       -0.00000
C         -0.00000        0.99710        0.00000
H         -0.00000        2.08521        0.00000
C          1.20049        0.28709       -0.00000
C          1.21473       -1.10812       -0.00000
H          2.16330       -1.63537       -0.00001
O          2.41297        0.93063        0.00001
H          2.27934        1.89339       -0.00006
O         -2.41297        0.93063        0.00000
H         -2.27934        1.89339       -0.00000
