30
id_1032_ca.log	Energy: -314129.5118045
C         -0.82550       -1.29025        1.31812
H         -1.71765       -1.70241        1.80427
H         -0.25255       -0.75943        2.07768
H         -0.21483       -2.13087        0.96301
C         -1.20465       -0.38744        0.17251
N         -1.94778       -0.76003       -0.80090
O         -2.41976       -2.06865       -0.77146
H         -2.03444       -2.55031       -0.01630
C         -0.68929        1.04585        0.14888
C         -1.11090        1.78491       -1.12279
H         -2.19919        1.87646       -1.17968
H         -0.77108        1.27403       -2.02751
H         -0.68127        2.79231       -1.11071
C         -1.26448        1.78829        1.36574
H         -0.89877        2.82064        1.37306
H         -0.96659        1.31955        2.30910
H         -2.35832        1.81154        1.32179
C          0.85041        1.03024        0.26146
H          1.19945        2.06952        0.29420
H          1.12516        0.58967        1.22812
C          1.55434        0.29802       -0.88406
H          1.53604        0.91159       -1.78969
H          1.03334       -0.63737       -1.13002
C          3.00950       -0.02007       -0.58855
H          3.55129        0.84366       -0.20018
H          3.52613       -0.40280       -1.46821
N          3.11278       -1.09489        0.45355
H          2.61996       -1.94265        0.14823
H          2.69847       -0.80144        1.34546
H          4.09147       -1.34531        0.63256
