16
id_1523_cb.log	Energy: -309070.9429851
C          2.36669        1.00580       -0.00000
H          3.17753        1.72824       -0.00000
C          2.66353       -0.38294       -0.00000
H          3.70012       -0.70793       -0.00000
C          1.65475       -1.31361       -0.00000
H          1.87040       -2.37878       -0.00000
C          0.29166       -0.90135       -0.00000
C         -0.00000        0.48535        0.00000
C          1.05876        1.42805       -0.00000
H          0.81601        2.48692       -0.00000
C         -1.38877        0.87898        0.00000
C         -2.28676       -0.22368        0.00000
H         -3.35698       -0.03402        0.00000
N         -1.92637       -1.50769        0.00000
N         -0.66473       -1.87712        0.00000
O         -1.77856        2.09246        0.00000
