22
id_1485_ca.log	Energy: -253904.4338353
C          2.59180        0.67973       -0.02414
H          3.53590        1.21501       -0.04250
C          2.57593       -0.71490        0.02881
H          3.50606       -1.27369        0.04877
C          1.36134       -1.38852        0.04963
H          1.33849       -2.47475        0.08500
C          0.15611       -0.68118        0.02466
C          0.16549        0.71669       -0.02372
C          1.39435        1.38378       -0.05135
H          1.40067        2.47007       -0.09127
C         -1.12447        1.50487       -0.07958
H         -1.29738        1.85670       -1.10416
H         -1.05123        2.39407        0.55257
C         -2.31824        0.68824        0.37530
H         -3.26385        1.17402        0.13804
H         -2.28114        0.45856        1.44195
N         -2.29374       -0.62980       -0.33812
H         -2.24984       -0.46367       -1.35190
C         -1.13088       -1.46614        0.08552
H         -1.34856       -1.79918        1.10344
H         -1.09940       -2.33901       -0.56797
H         -3.16202       -1.14491       -0.15590
