25
id_1316_ca.log	Energy: -278561.0315761
C          1.94703        1.23252       -0.04237
H          2.78501        1.92244       -0.06686
C          0.63470        1.68578       -0.05411
H          0.44163        2.75466       -0.08810
C         -0.44942        0.80060       -0.02508
C         -0.20781       -0.58144        0.01744
C          1.11197       -1.04286        0.02850
H          1.31667       -2.11076        0.05607
C          2.15665       -0.13808       -0.00057
N          3.53679       -0.64693        0.03533
H          3.60200       -1.58495       -0.38033
H          4.17897       -0.03150       -0.48042
C         -1.33884       -1.58707        0.07210
H         -1.08022       -2.45340       -0.54587
H         -1.42135       -1.95673        1.10305
C         -2.67949       -0.99174       -0.35254
H         -2.68259       -0.81950       -1.43659
H         -3.48245       -1.70206       -0.13382
C         -2.91055        0.33484        0.36748
H         -2.84543        0.17270        1.45118
H         -3.91047        0.72613        0.15708
C         -1.85881        1.35359       -0.06708
H         -1.90812        2.25630        0.55102
H         -2.07298        1.67251       -1.09608
H          3.88924       -0.71414        0.99979
