21
id_197_ca.log	Energy: -182915.2450293
C          3.40069        0.40944        0.01029
H          3.29357        1.38906       -0.46745
H          4.31377       -0.05465       -0.37351
H          3.53136        0.57339        1.08515
C          2.18023       -0.46328       -0.26167
H          2.31281       -1.44585        0.20690
H          2.08041       -0.63856       -1.33969
C          0.89592        0.17628        0.26257
H          0.74531        1.15293       -0.21421
H          0.97864        0.34678        1.34318
C         -0.30533       -0.70805       -0.01793
H         -0.22445       -1.67787        0.47786
H         -0.44402       -0.87086       -1.08996
N         -1.55044       -0.07253        0.47450
C         -2.21603        0.96657       -0.33752
H         -2.57490        1.81413        0.23222
H         -1.70252        1.17486       -1.26914
C         -2.85705       -0.35100       -0.15410
H         -2.80050       -1.07893       -0.95486
H         -3.67367       -0.44962        0.54964
H         -1.57334        0.09316        1.48254
