41
id_1760_ca.log	Energy: -1021092.4739375
C          2.62166        3.45327       -0.17849
H          3.66788        3.25834        0.05500
H          2.34641        4.46687        0.11622
H          2.44421        3.30292       -1.24256
N          1.78314        2.50573        0.60815
C          2.10727        2.59859        2.06000
H          1.51401        1.85750        2.59567
H          1.86102        3.60598        2.39730
H          3.17078        2.40118        2.18994
C          0.31154        2.71362        0.38698
H         -0.19191        2.02162        1.06653
H          0.09793        3.73630        0.70688
C         -0.12823        2.48410       -1.05191
H          0.21031        3.29753       -1.70008
H         -1.22074        2.53080       -1.04173
C          0.37002        1.16355       -1.65405
H          1.42162        1.27855       -1.93087
H         -0.17559        0.94127       -2.58010
N          0.31696        0.06468       -0.68987
C          1.30635       -0.94906       -0.74946
C          2.05911       -1.19820       -1.90037
H          1.86953       -0.63390       -2.80690
C          3.05139       -2.17636       -1.88880
H          3.63565       -2.34753       -2.78719
C          3.28060       -2.94170       -0.74909
H          4.04880       -3.70767       -0.74493
C          2.50641       -2.72894        0.38957
H          2.66109       -3.32780        1.28219
C          1.53777       -1.72997        0.39301
S          0.60603       -1.37133        1.86427
C         -0.94382       -1.01074        1.07892
C         -0.92612       -0.29468       -0.12910
C         -2.13852        0.03646       -0.74008
H         -2.16031        0.55575       -1.69136
C         -3.32895       -0.31626       -0.11429
C         -3.36000       -1.01913        1.08238
H         -4.30220       -1.28477        1.54767
C         -2.14853       -1.38132        1.66587
H         -2.14458       -1.94487        2.59363
Cl        -4.83699        0.12784       -0.88216
H          2.01005        1.54778        0.30872
