30
id_1389_ca.log	Energy: -337936.5218678
C         -1.90722        1.19446        0.27076
H         -1.51433        2.15292        0.59649
C         -2.99786        1.14028       -0.59061
H         -3.45473        2.06048       -0.94381
N         -3.54545        0.00000       -1.02619
C         -2.99787       -1.14028       -0.59061
H         -3.45475       -2.06048       -0.94380
C         -1.90722       -1.19445        0.27077
H         -1.51435       -2.15292        0.59650
C         -1.33752        0.00000        0.70931
C         -0.16215       -0.00000        1.65001
H         -0.16556       -0.89040        2.28151
H         -0.16556        0.89040        2.28151
N          1.16642       -0.00000        0.93992
C          1.40162       -1.24020        0.12220
H          1.18577       -2.09303        0.76888
H          0.67951       -1.21311       -0.69815
C          2.83066       -1.25330       -0.39868
H          3.52210       -1.31860        0.45058
H          2.95947       -2.15966       -0.99657
C          3.12637        0.00000       -1.22202
H          4.16993       -0.00000       -1.54807
H          2.49869        0.00001       -2.12177
C          2.83067        1.25329       -0.39866
H          2.95948        2.15966       -0.99655
H          3.52210        1.31858        0.45059
C          1.40163        1.24020        0.12221
H          0.67952        1.21312       -0.69814
H          1.18579        2.09303        0.76890
H          1.87351       -0.00001        1.68779
