25
id_142_cb.log	Energy: -455809.0967009
C         -4.03546       -1.17205        0.47890
H         -4.83582       -1.85819        0.73831
C         -3.01716       -0.90358        1.39593
H         -3.02520       -1.37651        2.37363
C         -1.98638       -0.02279        1.07332
H         -1.19562        0.19468        1.78557
C         -1.98251        0.57933       -0.18436
C         -2.98982        0.32506       -1.11008
H         -2.95822        0.81311       -2.07961
C         -4.01967       -0.55259       -0.77084
H         -4.80773       -0.75395       -1.49049
O         -1.01940        1.51381       -0.53940
C          0.30674        1.26040       -0.22002
C          1.08503        2.35288        0.15213
H          0.62651        3.33413        0.22998
C          2.44008        2.15881        0.41619
H          3.05428        3.00551        0.70813
C          3.00443        0.88845        0.31489
H          4.05784        0.73779        0.52631
C          2.21369       -0.20180       -0.06075
C          0.85749       -0.01288       -0.33492
H          0.24122       -0.85449       -0.63552
C          2.81987       -1.59333       -0.18214
O          2.04491       -2.53979       -0.49121
O          4.05758       -1.70871        0.03490
