22
id_1943_ca.log	Energy: -266843.7948340
C         -2.43720        1.55299        0.00000
H         -3.05403        1.33741        0.88072
H         -3.05403        1.33742       -0.88072
H         -2.20825        2.62237        0.00001
C         -1.17234        0.73389        0.00000
C          0.07924        1.35261        0.00000
H          0.12815        2.44062        0.00000
C          1.28230        0.63858       -0.00000
C          1.19472       -0.75680       -0.00000
C         -0.04076       -1.40178       -0.00000
H         -0.06332       -2.48929       -0.00000
C         -1.23022       -0.67272       -0.00000
C         -2.55900       -1.38199       -0.00000
H         -3.15296       -1.11006       -0.88065
H         -3.15296       -1.11007        0.88064
H         -2.42506       -2.46699       -0.00001
O          2.31689       -1.56086        0.00000
H          3.12174       -1.01731        0.00003
C          2.61914        1.33299       -0.00001
H          2.48527        2.41752       -0.00004
H          3.21250        1.06934       -0.88447
H          3.21248        1.06939        0.88449
