23
id_1541_ca.log	Energy: -358703.0458746
C         -1.46316        2.78765        0.00000
H         -1.03314        3.27370       -0.88238
H         -1.03312        3.27371        0.88236
H         -2.54371        2.93565        0.00001
C         -1.14260        1.32577        0.00000
C          0.22023        0.88282        0.00000
C          1.34549        1.74260       -0.00000
H          1.21047        2.81931       -0.00000
C          2.60896        1.19381       -0.00000
H          3.48068        1.84099       -0.00000
C          2.80277       -0.20666       -0.00000
H          3.80418       -0.62657       -0.00000
C          1.71635       -1.05008        0.00000
C          0.39899       -0.51385        0.00000
N         -0.64699       -1.39022        0.00000
C         -1.85297       -0.87396       -0.00000
N         -2.13892        0.46573        0.00000
C         -3.03815       -1.78687       -0.00000
H         -3.65725       -1.59465       -0.88245
H         -3.65726       -1.59464        0.88244
H         -2.72528       -2.83168        0.00001
O          1.88526       -2.40232        0.00000
H          0.99823       -2.81319        0.00000
