26
id_1320_cb.log	Energy: -326079.9062717
C         -4.21159       -1.09471        0.09742
H         -5.21583       -0.68869        0.24243
H         -4.00061       -1.78246        0.92326
H         -4.19979       -1.66415       -0.83645
C         -3.19099        0.02874        0.05818
H         -3.23928        0.61780        0.98676
H         -3.42264        0.71314       -0.76455
N         -1.85532       -0.51657       -0.15128
H         -1.72527       -1.38600        0.35641
C         -0.75740        0.33332       -0.07315
C         -0.89414        1.71082       -0.07313
H         -1.87982        2.16020       -0.10236
C          0.23844        2.55667       -0.02467
H          0.08385        3.63178       -0.02467
C          1.50656        2.04399        0.03940
H          2.37728        2.69114        0.08947
C          1.69397        0.63431        0.03297
C          0.56816       -0.23556       -0.04003
C          0.79566       -1.63671       -0.08910
H         -0.04019       -2.32160       -0.18845
C          2.06917       -2.15149       -0.03928
H          2.22006       -3.22557       -0.08187
C          3.18463       -1.28849        0.05815
H          4.18684       -1.70375        0.09981
C          2.99686        0.07057        0.08804
H          3.84667        0.74546        0.15038
