29
id_1389_cb.log	Energy: -337645.0937320
C          1.88427       -1.19039        0.27979
H          1.49456       -2.15085        0.60574
C          2.96773       -1.13862       -0.59015
H          3.42047       -2.05996       -0.94764
N          3.51557       -0.00001       -1.03249
C          2.96775        1.13860       -0.59015
H          3.42051        2.05993       -0.94763
C          1.88429        1.19038        0.27980
H          1.49459        2.15085        0.60575
C          1.31351        0.00000        0.73311
C          0.10553        0.00002        1.64858
H          0.14750        0.88578        2.29131
H          0.14750       -0.88572        2.29134
N         -1.19887        0.00001        0.97796
C         -1.40398        1.20137        0.16499
H         -1.19451        2.07817        0.78797
H         -0.70351        1.23233       -0.68985
C         -2.83102        1.25214       -0.37167
H         -3.52962        1.31913        0.47138
H         -2.95708        2.15610       -0.97688
C         -3.13523       -0.00001       -1.19409
H         -4.17677       -0.00001       -1.53184
H         -2.50269       -0.00003       -2.09240
C         -2.83104       -1.25214       -0.37163
H         -2.95710       -2.15611       -0.97682
H         -3.52964       -1.31909        0.47142
C         -1.40399       -1.20136        0.16502
H         -0.70352       -1.23235       -0.68982
H         -1.19453       -2.07815        0.78803
