18
id_1788_cb.log	Energy: -1031663.9915116
C         -2.73014        0.00967        1.25924
H         -2.40924       -0.92832        1.71695
H         -3.82178        0.04709        1.24307
H         -2.34849        0.85910        1.82904
S         -2.17162        0.10167       -0.47131
C         -0.41821        0.02835       -0.21727
C          0.28078       -1.18752       -0.12074
C          1.65176       -1.26686        0.05208
H          2.13949       -2.23346        0.12053
C          2.41217       -0.09180        0.14018
C          1.75338        1.14319        0.05634
H          2.32137        2.06470        0.12811
C          0.37961        1.18068       -0.11198
Cl        -0.35545        2.76493       -0.17983
N          3.76866       -0.14963        0.36867
H          4.29066        0.67353        0.09073
H          4.21925       -1.01337        0.08887
Cl        -0.58585       -2.70275       -0.20865
