33
id_1643_cb.log	Energy: -375517.5332746
C          4.42032       -1.55819       -0.18092
H          4.65200       -1.78500       -1.22473
H          4.27799       -2.50582        0.34942
H          5.29217       -1.06729        0.26382
C          3.19482       -0.68866       -0.07251
C          2.47065       -0.30672       -1.20184
H          2.79914       -0.64151       -2.18278
C          1.33635        0.49988       -1.09377
H          0.79518        0.79468       -1.98797
C          0.89848        0.94325        0.15220
C          1.62113        0.56291        1.28891
H          1.29491        0.90535        2.26904
C          2.75052       -0.23854        1.17785
H          3.30332       -0.51879        2.07162
C         -0.36101        1.77985        0.30715
C         -1.52843        0.92223        0.81343
H         -2.37429        1.58240        1.03735
H         -1.23804        0.41749        1.74528
N         -1.93759        0.01593       -0.25819
H         -1.23346       -0.72163       -0.33703
C         -3.23793       -0.63381       -0.03044
H         -3.98069        0.17212        0.02912
C         -3.29281       -1.44511        1.26427
H         -4.26591       -1.93527        1.37083
H         -3.13548       -0.81697        2.14614
H         -2.51870       -2.22254        1.25286
C         -3.56119       -1.51422       -1.23051
H         -2.82079       -2.31855       -1.32012
H         -3.55152       -0.93426       -2.15780
H         -4.54693       -1.97494       -1.11785
O         -0.74841        2.40279       -0.90600
H         -1.29428        1.72495       -1.35153
H         -0.16960        2.57450        1.03669
