25
id_1337_ca.log	Energy: -231486.2513746
C          3.50347        0.55495        0.22939
H          4.31166        1.09202       -0.25750
H          3.47682        0.57350        1.31652
C          2.59084       -0.11043       -0.47194
H          2.62435       -0.12772       -1.56039
C          1.49590       -0.90258        0.17102
H          1.53584       -0.84258        1.26151
H          1.53513       -1.95162       -0.13470
N          0.13630       -0.40356       -0.23547
C         -0.94248       -1.33335        0.24526
H         -0.69537       -2.32584       -0.13514
H         -0.86983       -1.33618        1.33690
C         -2.30719       -0.86134       -0.22900
H         -3.05443       -1.55913        0.15905
H         -2.34443       -0.91702       -1.32409
C         -2.58848        0.56750        0.23259
H         -3.55112        0.90885       -0.15776
H         -2.64828        0.59154        1.32780
C         -1.46837        1.49470       -0.23560
H         -1.46446        1.55616       -1.33106
H         -1.60608        2.50954        0.14777
C         -0.11037        1.00193        0.23786
H         -0.04913        0.96206        1.32987
H          0.70542        1.61690       -0.14354
H          0.09987       -0.39384       -1.26442
