27
id_1187_ca.log	Energy: -279297.7085831
C         -0.67866        2.41451        0.05883
H         -1.11235        2.59616       -0.92926
H         -0.14819        3.32079        0.35805
H         -1.49966        2.26462        0.76409
C          0.29765        1.26311        0.02865
C          1.66349        1.56400        0.07900
H          1.95652        2.60705        0.15042
C          2.63440        0.57225        0.04379
H          3.68530        0.83966        0.08644
C          2.25686       -0.76218       -0.03877
H          3.00751       -1.54623       -0.06102
C          0.90988       -1.11979       -0.09097
C         -0.04442       -0.09204       -0.06307
N         -1.46015       -0.53600       -0.09095
C         -2.06105       -0.59130        1.28226
H         -2.09204        0.41688        1.69185
H         -1.43673       -1.23693        1.89945
H         -3.06758       -0.99991        1.19092
C         -2.36444        0.15637       -1.06852
H         -1.80233        0.35949       -1.97933
H         -2.74685        1.07252       -0.62751
H         -3.18904       -0.52580       -1.27340
C          0.52197       -2.57552       -0.17131
H         -0.11574       -2.87674        0.66789
H          1.41737       -3.19878       -0.14568
H         -0.01045       -2.80763       -1.10189
H         -1.43872       -1.50946       -0.41377
