21
id_1079_ca.log	Energy: -1843420.7521905
C         -1.72937       -2.31307       -0.89957
H         -1.86776       -1.81141       -1.85606
H         -2.65201       -2.33245       -0.32291
H         -1.35795       -3.32688       -1.04220
N         -0.68307       -1.57408       -0.12106
C         -0.54045       -2.14403        1.26184
H          0.27470       -1.62699        1.76786
H         -0.32222       -3.20727        1.16584
H         -1.48352       -1.98044        1.78296
C         -0.87345       -0.11609       -0.06626
C         -2.15271        0.41907        0.00609
H         -3.02099       -0.23006       -0.00089
C         -2.31436        1.79856        0.08691
H         -3.31450        2.21364        0.13847
C         -1.20301        2.63576        0.09850
H         -1.32755        3.71148        0.15711
C          0.07999        2.10048        0.03871
H          0.95164        2.74510        0.05153
C          0.23956        0.72300       -0.03787
Br         1.99026       -0.00026       -0.09473
H          0.20527       -1.74930       -0.60898
