30
id_109_ca.log	Energy: -512911.6703774
C         -5.36264       -0.30553        0.00289
H         -6.44830       -0.27461       -0.00185
C         -4.69942       -1.55537        0.04122
H         -5.28036       -2.47225        0.06529
C         -3.32496       -1.61033        0.04753
H         -2.81219       -2.56618        0.07657
C         -2.56333       -0.41384        0.01492
C         -3.22348        0.84501       -0.02366
C         -4.64127        0.86608       -0.02837
H         -5.14652        1.82800       -0.05787
C         -2.45721        2.05028       -0.05751
H         -2.97671        3.00353       -0.08576
C         -1.09522        1.99213       -0.05468
H         -0.49152        2.89483       -0.08027
C         -0.40559        0.74426       -0.01825
C         -1.13390       -0.45083        0.01761
O         -0.55063       -1.65850        0.05436
H          0.43410       -1.51746        0.04408
N          0.98913        0.83189       -0.02278
N          1.61991       -0.25244       -0.00241
C          3.04007       -0.13752        0.00084
C          3.71234        1.08163        0.11412
H          3.15963        2.00877        0.20580
C          5.10102        1.05895        0.10960
H          5.66237        1.98411        0.19750
C          5.75844       -0.16465       -0.00621
H          6.84126       -0.22791       -0.01348
C          4.98951       -1.32063       -0.10859
H          5.46598       -2.29259       -0.19736
N          3.65255       -1.31918       -0.10285
