30
id_1110_cb.log	Energy: -327581.9940021
C         -1.22144        2.43384       -0.05617
H         -0.84479        2.72052       -1.04542
H         -0.40220        2.59456        0.65741
H         -2.03177        3.11695        0.20880
C         -1.70301        1.00754       -0.03749
C         -3.01704        0.70144        0.30602
H         -3.68631        1.51960        0.56194
C         -3.48682       -0.61235        0.33092
H         -4.51593       -0.82261        0.60346
C         -2.61188       -1.64269        0.00280
H         -2.95061       -2.67462        0.01679
C         -1.29094       -1.36693       -0.34282
H         -0.62301       -2.18500       -0.59132
C         -0.81841       -0.04544       -0.37288
N          0.47819        0.25803       -0.78463
H          0.78086        1.17852       -0.48034
C          1.55137       -0.73344       -0.67030
H          1.32541       -1.57068       -1.33665
C          2.88100       -0.06504       -1.03158
H          3.60737       -0.84829       -1.26800
H          2.79209        0.58440       -1.90707
C          3.30660        0.68997        0.24952
H          4.38654        0.62120        0.40241
H          3.06401        1.75459        0.17591
C          2.51536        0.02655        1.40847
H          1.77215        0.72555        1.80681
H          3.15948       -0.26532        2.24161
C          1.80516       -1.18259        0.77695
H          0.88963       -1.46673        1.30381
H          2.47003       -2.05402        0.76167
