20
id_186_cb.log	Energy: -1890212.8962217
C         -2.99982       -1.82540        0.00420
H         -3.95227       -2.34633        0.00676
C         -1.79465       -2.56913        0.00418
H         -1.82981       -3.65372        0.00686
C         -0.58412       -1.92301        0.00111
H          0.33826       -2.49373        0.00164
C         -0.51844       -0.50560       -0.00269
C         -1.73005        0.24986       -0.00317
C         -2.96661       -0.45488        0.00098
H         -3.88703        0.12268        0.00099
C         -1.69826        1.66475       -0.00291
H         -2.63663        2.21349        0.00169
C         -0.50079        2.34970       -0.00830
C          0.71637        1.60953       -0.00876
H          1.66002        2.14621       -0.01239
C          0.69172        0.24409       -0.00416
Br         2.35872       -0.67175        0.00159
N         -0.43806        3.73556       -0.07741
H          0.39931        4.13279        0.33532
H         -1.27271        4.20135        0.26249
