16
id_1466_ca.log	Energy: -225471.2601445
C         -2.76774        0.35143        0.00000
H         -3.71308       -0.18596        0.00003
H         -2.71746        0.98157       -0.89314
H         -2.71742        0.98160        0.89312
N         -1.69533       -0.63105       -0.00001
H         -1.91827       -1.61988       -0.00000
C         -0.40539       -0.33504        0.00000
N          0.50214       -1.33304        0.00000
C          1.77619       -0.99559        0.00000
H          2.48494       -1.81894        0.00001
C          2.24776        0.33264       -0.00001
H          3.30349        0.56347       -0.00001
C          1.30116        1.31244       -0.00000
H          1.50725        2.37529        0.00000
N         -0.01162        0.96650        0.00000
H         -0.70755        1.71072        0.00002
