20
id_1533_ca.log	Energy: -300058.5730964
C          0.85179        2.53731        0.00000
H          1.49557        2.61853       -0.88276
H          1.49538        2.61861        0.88290
H          0.15559        3.37861       -0.00010
C          0.10840        1.23029       -0.00001
C         -1.28202        1.19482       -0.00000
H         -1.85346        2.11979       -0.00001
C         -1.95065       -0.03158        0.00000
C         -1.24799       -1.23899        0.00000
H         -1.79825       -2.17541        0.00000
C          0.14108       -1.23686       -0.00000
C          0.80632        0.00666       -0.00001
C          2.23820        0.02605       -0.00000
N          3.40046        0.04152        0.00000
C          0.92075       -2.52246        0.00000
H          1.56646       -2.58602       -0.88283
H          0.24761       -3.38236       -0.00003
H          1.56641       -2.58604        0.88286
O         -3.31163       -0.10881        0.00000
H         -3.70069        0.78266        0.00000
