25
id_1300_ca.log	Energy: -348889.7098375
C         -2.28651        2.66554       -0.00000
H         -2.81599        2.32612        0.89582
H         -2.81598        2.32612       -0.89582
H         -2.22030        3.75267       -0.00000
O         -0.94350        2.19414        0.00000
C         -0.75174        0.85595        0.00000
C         -1.76948       -0.06881        0.00000
H         -2.81391        0.22011        0.00000
C         -1.42496       -1.43806        0.00000
C         -0.14627       -1.90100       -0.00000
H          0.07239       -2.96505       -0.00000
C          0.91504       -0.95245       -0.00000
C          0.62120        0.43691       -0.00000
C          1.68408        1.37350        0.00000
H          1.45558        2.43329        0.00001
C          2.98835        0.94029        0.00000
H          3.79862        1.66229        0.00001
C          3.28484       -0.44217       -0.00000
H          4.31953       -0.76967       -0.00000
C          2.27065       -1.36796       -0.00000
H          2.48722       -2.43239       -0.00001
N         -2.53729       -2.39867        0.00000
H         -3.13686       -2.27902       -0.82810
H         -2.19553       -3.36844        0.00002
H         -3.13687       -2.27900        0.82809
