26
id_1097_ca.log	Energy: -456092.5770779
C          4.63093       -1.02262        0.08710
H          5.52034       -1.64483        0.11388
C          3.82443       -0.90846        1.22181
H          4.08543       -1.43915        2.13262
C          2.68344       -0.10845        1.19553
H          2.04320       -0.00406        2.06716
C          2.36422        0.56455        0.02001
C          3.15184        0.46514       -1.11969
H          2.86885        1.00710       -2.01716
C          4.29514       -0.33483       -1.07910
H          4.92102       -0.41931       -1.96246
O          1.25699        1.41293       -0.00937
C          0.00330        0.85587       -0.01849
C         -1.05612        1.74165        0.20168
H         -0.84091        2.78998        0.38259
C         -2.35833        1.26748        0.18851
H         -3.17944        1.95458        0.36305
C         -2.61059       -0.09150       -0.04490
C         -1.54173       -0.96325       -0.27001
H         -1.73659       -2.01469       -0.45724
C         -0.23132       -0.50023       -0.25957
H          0.59037       -1.18494       -0.43917
C         -3.98534       -0.63618       -0.05837
O         -4.26246       -1.80748       -0.26275
O         -4.93038        0.28562        0.18085
H         -5.80481       -0.14823        0.15987
