19
id_1495_ca.log	Energy: -289244.0629172
C         -2.92270        0.40187       -0.00000
H         -3.94001        0.78191       -0.00000
C         -2.69595       -0.99922       -0.00000
H         -3.54403       -1.67816        0.00000
C         -1.41637       -1.50019        0.00000
H         -1.24125       -2.57337        0.00000
C         -0.29381       -0.62480        0.00000
C          1.03795       -1.11738        0.00000
H          1.22088       -2.18891       -0.00000
C          2.09406       -0.23906        0.00000
C          1.87802        1.16332        0.00000
H          2.73531        1.83207       -0.00000
C          0.59805        1.65593        0.00000
H          0.42707        2.72963        0.00000
C         -0.52332        0.78197        0.00000
C         -1.85822        1.27069       -0.00000
H         -2.01842        2.34645       -0.00000
O          3.36992       -0.74843       -0.00000
H          4.01477       -0.02090        0.00002
