20
id_1677_ca.log	Energy: -333619.1075012
C          0.86117        1.21078       -0.27690
H          1.40365        2.14880       -0.34621
C         -0.51812        1.22127       -0.11504
H         -1.07187        2.14980       -0.05430
C         -1.17565        0.00000       -0.03895
C         -0.51811       -1.22126       -0.11505
H         -1.07186       -2.14980       -0.05432
C          0.86117       -1.21077       -0.27691
H          1.40366       -2.14879       -0.34623
C          1.55352        0.00001       -0.36088
C          3.04933        0.00001       -0.51938
H          3.40104        0.89140       -1.03790
H          3.40105       -0.89135       -1.03794
N          3.70787       -0.00002        0.82852
H          3.43912       -0.82998        1.37094
H          3.43913        0.82992        1.37097
N         -2.63209       -0.00000        0.12222
O         -3.20529       -1.07534        0.18527
O         -3.20530        1.07533        0.18527
H          4.73038       -0.00002        0.73415
