18
id_1355_ca.log	Energy: -295369.2056710
C         -3.46518       -0.04032        0.03104
H         -4.52069       -0.29398        0.02305
C         -3.04092        1.22284       -0.37599
H         -3.75929        1.96755       -0.70507
C         -1.68254        1.53797       -0.36198
H         -1.34777        2.52061       -0.67792
C         -0.75785        0.58572        0.06207
C         -1.15884       -0.68958        0.47811
C         -2.52829       -0.98102        0.45169
H         -2.85543       -1.96727        0.77059
C         -0.18635       -1.73854        0.95036
H         -0.73733       -2.59080        1.36630
H          0.46613       -1.36003        1.74272
C          0.71209       -2.32015       -0.11634
O          1.76770       -2.87676        0.12350
O          0.21856       -2.21723       -1.35480
H          0.83775       -2.64144       -1.98151
I          1.29573        1.12558        0.04903
