20
id_1408_cb.log	Energy: -182648.3585121
C         -2.67235        0.32484       -0.10204
H         -3.54121        0.02131       -0.69354
H         -2.42062        1.35265       -0.38409
H         -2.97070        0.33310        0.95250
C         -1.49487       -0.62069       -0.32129
H         -1.20527       -0.62253       -1.38121
H         -1.79432       -1.64472       -0.07061
C         -0.27865       -0.24201        0.51942
C          0.28173        1.15779        0.14146
H         -0.15645        1.48509       -0.80952
H          0.04653        1.91930        0.88962
C          1.78716        0.93359       -0.03966
H          2.31140        1.02062        0.91929
H          2.24395        1.63278       -0.74579
C          1.82137       -0.52025       -0.50528
H          2.79971       -0.99733       -0.41319
H          1.51316       -0.58338       -1.55593
N          0.83002       -1.21868        0.33134
H          1.27311       -1.32249        1.24374
H         -0.57567       -0.26327        1.57371
