12
id_195_ca.log	Energy: -108951.4081182
C          1.12279       -0.00000       -0.10397
H          1.51216       -0.00000       -1.12227
H          1.93917       -0.00000        0.61546
C          0.03359       -1.06174        0.10681
H         -0.03922       -1.42141        1.13130
H         -0.05407       -1.87848       -0.60572
N         -1.02851        0.00000       -0.10030
H         -1.81274        0.00000        0.55755
C          0.03359        1.06174        0.10681
H         -0.05407        1.87848       -0.60572
H         -0.03922        1.42141        1.13130
H         -1.39234        0.00000       -1.05773
