18
id_1107_cb.log	Energy: -623923.6661895
C         -0.43377        2.52027       -0.33420
H         -0.52656        3.58289       -0.53632
C          0.82238        1.93505       -0.19992
H          1.72003        2.53844       -0.29522
C          0.94513        0.56632        0.04280
C         -0.19736       -0.24484        0.18977
C         -1.44174        0.37780        0.04829
C         -1.57806        1.73901       -0.21213
H         -2.56603        2.17611       -0.31541
Cl        -2.92346       -0.55670        0.18522
C         -0.06303       -1.72398        0.48539
H         -0.98462       -2.11693        0.91348
H          0.73919       -1.87667        1.21580
O          0.20079       -2.47758       -0.69402
H          1.09485       -2.17989       -0.96634
C          2.34922       -0.01839        0.10013
O          2.54891       -1.11598       -0.49812
O          3.22596        0.64762        0.70646
