14
id_1375_ca.log	Energy: -274020.0583630
C         -0.05096       -1.41084        0.00000
H         -0.74799       -2.24312        0.00000
C          1.31677       -1.63149        0.00000
H          1.71594       -2.64036        0.00000
N          2.21486       -0.63121       -0.00000
C          1.76455        0.61900       -0.00000
H          2.49938        1.42153       -0.00000
C          0.40036        0.94268        0.00000
C         -0.53285       -0.09857        0.00000
C         -1.98611        0.18052        0.00000
H         -2.29110        1.23674        0.00000
O         -2.82758       -0.70316       -0.00000
O         -0.03200        2.22775        0.00000
H          0.72579        2.83922       -0.00000
