27
id_1412_cb.log	Energy: -302918.0752220
C         -1.30427        2.04069       -0.58388
H         -0.25996        2.23815       -0.84254
H         -1.51523        2.51465        0.39138
H         -1.93858        2.51390       -1.33876
N         -1.55325        0.60886       -0.55614
C         -2.94003        0.31028       -0.19109
H         -3.24203        0.91290        0.68478
H         -3.61869        0.55342       -1.01368
C         -2.92020       -1.17832        0.17531
H         -3.64203       -1.40204        0.96356
H         -3.17249       -1.79350       -0.69181
C         -1.45929       -1.43376        0.61674
H         -0.96877       -2.14441       -0.05450
H         -1.37968       -1.82747        1.63256
C         -0.78550       -0.05464        0.50916
C          0.70068       -0.08341        0.24217
C          1.21462       -0.70474       -0.90211
H          0.53530       -1.17229       -1.60989
C          2.58509       -0.72860       -1.14180
H          2.96865       -1.21426       -2.03417
C          3.46611       -0.13215       -0.23827
H          4.53547       -0.15303       -0.42491
C          2.96539        0.49061        0.90169
H          3.64248        0.96039        1.60883
C          1.59021        0.51643        1.13529
H          1.19988        1.00845        2.02299
H         -0.94831        0.48870        1.45992
