19
id_1174_cb.log	Energy: -333334.4685535
C         -1.67731        2.05313       -0.11110
H         -2.38145        1.69518       -0.86665
H         -1.38582        3.07551       -0.36197
H         -2.20958        2.07009        0.84387
C         -0.44224        1.19444       -0.04037
C          0.81991        1.80208       -0.05604
H          0.86495        2.88579       -0.11245
C          2.00434        1.08338       -0.00881
H          2.95693        1.60591       -0.01687
C          1.99360       -0.31930        0.04366
C          0.75475       -0.96092        0.03870
H          0.69565       -2.04271        0.07189
C         -0.41292       -0.20465        0.00627
N         -1.65933       -0.97207        0.01618
O         -1.62800       -2.13553       -0.36009
O         -2.68045       -0.42808        0.40743
N          3.17275       -1.04321        0.16020
H          3.10840       -1.99511       -0.18426
H          3.98384       -0.56782       -0.22082
