25
id_1054_ca.log	Energy: -254796.2937828
C          2.56241       -0.61321       -0.21894
H          2.57322       -0.65244       -1.31407
H          2.71019       -1.62854        0.16326
H          3.41809       -0.01486        0.10743
C          1.26526        0.02044        0.27994
C          1.16285        1.48738       -0.15848
H          2.02670        2.03163        0.23712
H          1.22933        1.53009       -1.25471
C         -0.14086        2.14124        0.30093
H         -0.18947        3.17613       -0.05073
H         -0.16535        2.17191        1.39793
C         -1.34951        1.35732       -0.21154
H         -1.37229        1.37084       -1.30884
H         -2.28826        1.79284        0.14664
C         -1.27455       -0.09361        0.24363
C          0.03004       -0.72163       -0.22752
N          0.02568       -2.14940        0.23705
H          0.18156       -2.20386        1.25186
H          0.74891       -2.71149       -0.22449
O         -2.31493       -0.89412       -0.30348
H         -3.14373       -0.64570        0.13548
H          1.24134       -0.01498        1.37927
H         -1.30357       -0.13840        1.34330
H          0.03096       -0.76550       -1.32213
H         -0.89191       -2.56655        0.03302
