32
id_1061_cb.log	Energy: -281278.7776779
C          3.12797       -1.23822        0.62923
H          2.88072       -1.92860        1.44183
H          3.36878       -1.82796       -0.26260
H          4.02253       -0.68328        0.92658
C          1.94756       -0.31459        0.35005
C          0.68637       -1.14073        0.09207
H          0.89502       -1.85454       -0.71748
H          0.48812       -1.73622        0.99435
C         -0.58260       -0.35350       -0.25542
H         -0.44433        0.13866       -1.23132
C         -1.77155       -1.31197       -0.39924
H         -1.54572       -2.06843       -1.16105
H         -1.90366       -1.84818        0.55253
C         -3.06762       -0.57623       -0.74262
H         -3.89795       -1.28723       -0.81855
H         -2.96273       -0.10057       -1.72769
C         -3.37694        0.49780        0.30144
H         -4.29157        1.03926        0.03498
H         -3.56130        0.01358        1.27068
C         -2.20491        1.46996        0.44236
H         -2.42076        2.22091        1.21058
H         -2.07436        2.01168       -0.50495
C         -0.90451        0.73452        0.77656
H         -0.07996        1.45540        0.84096
H         -0.99319        0.26343        1.76748
N          2.22931        0.55445       -0.80036
H          1.38817        1.10871       -0.95696
C          3.30441        1.50412       -0.51859
H          3.31512        2.27802       -1.28977
H          3.20199        1.99724        0.46184
H          4.27604        1.00386       -0.54104
H          1.78472        0.29618        1.25703
