23
id_1505_cb.log	Energy: -348337.4467721
C          3.35913       -1.18873       -0.00000
H          3.37183       -2.28196        0.00000
H          3.90887       -0.83833        0.88117
H          3.90887       -0.83833       -0.88117
C          1.94561       -0.67638       -0.00000
C          0.86535       -1.52063        0.00000
H          1.01627       -2.59958        0.00000
C         -0.46306       -1.01549        0.00000
C         -1.59794       -1.86771        0.00000
H         -1.45870       -2.94548        0.00000
C         -2.85367       -1.29599        0.00000
H         -3.73541       -1.93371        0.00000
C         -3.02823        0.10069        0.00000
H         -4.03257        0.51875        0.00000
C         -1.94501        1.00078        0.00000
C         -0.61422        0.39759        0.00000
N          0.46591        1.23161        0.00000
C          1.68539        0.73285       -0.00000
C          2.84136        1.69463       -0.00000
H          2.47650        2.72357        0.00001
H          3.47698        1.54595       -0.88095
H          3.47699        1.54593        0.88093
O         -2.10491        2.28903        0.00000
