22
id_1379_ca.log	Energy: -311154.8270698
C          3.37146       -0.14440       -0.09631
H          3.65708        0.10707        0.92950
H          3.55637        0.72927       -0.72716
H          3.97309       -0.98280       -0.44455
C          1.93027       -0.56551       -0.15727
O          1.59121       -1.68446       -0.50263
N          0.98227        0.40346        0.19652
C          1.37745        1.80178        0.42638
H          2.32809        1.82503        0.95277
H          0.63739        2.27771        1.07102
H          1.46886        2.35551       -0.51257
C         -0.36966        0.10585        0.10812
C         -0.94595       -1.12050        0.45020
H         -0.31708       -1.91900        0.81306
C         -2.31696       -1.27516        0.34585
H         -2.76225       -2.22406        0.62480
C         -3.13259       -0.22354       -0.08827
H         -4.20656       -0.32890       -0.16825
C         -2.53599        0.97091       -0.40029
H         -3.06466        1.85453       -0.73291
N         -1.19340        1.09529       -0.30275
H         -0.79030        1.99339       -0.57162
