22
id_1210_cb.log	Energy: -324081.3953793
C         -0.35746       -1.25536       -0.58786
H         -1.06671       -2.04382       -0.82500
C          0.95715       -1.59044       -0.25532
H          1.28468       -2.62503       -0.22589
C          1.87149       -0.59288        0.04612
C          1.46714        0.74923        0.01190
C          0.16065        1.07685       -0.31767
H         -0.13075        2.12547       -0.33666
C         -0.77122        0.07669       -0.62635
C         -2.20521        0.44426       -0.91285
H         -2.67199       -0.33549       -1.52687
H         -2.24627        1.38081       -1.48096
C         -3.02508        0.60913        0.37599
H         -4.03561        0.93631        0.11305
H         -2.58004        1.40489        0.98332
N         -3.13379       -0.59276        1.20447
H         -2.18704       -0.90761        1.42092
H         -3.52074       -1.33531        0.62018
O          2.43823        1.66854        0.31882
H          2.05311        2.56034        0.30891
O          3.16330       -0.92067        0.37279
H          3.64091       -0.09904        0.58110
