30
id_1393_ca.log	Energy: -337934.2447069
C          1.77550       -0.70144        1.03488
H          1.26927       -1.07607        1.91976
C          2.73727       -1.48037        0.39760
H          2.97737       -2.46675        0.78581
N          3.40845       -1.09274       -0.69157
C          3.11718        0.12276       -1.17466
H          3.66819        0.43268       -2.05866
C          2.17533        0.97487       -0.61286
H          1.99149        1.94989       -1.05541
C          1.48064        0.56326        0.52747
C          0.42504        1.43978        1.15590
H          0.83943        2.43170        1.36309
H          0.10017        1.01395        2.10966
C         -0.77394        1.65375        0.23769
H         -0.48021        2.14627       -0.69237
H         -1.54656        2.24786        0.73038
N         -1.41555        0.36240       -0.15002
C         -2.56291        0.51860       -1.10406
H         -3.21730        1.28419       -0.67910
H         -2.17822        0.84457       -2.07023
C         -3.19862       -0.86104       -1.07953
H         -4.22500       -0.83328       -1.44705
H         -2.62274       -1.54057       -1.71406
C         -3.10536       -1.28454        0.40063
H         -2.90155       -2.35107        0.50069
H         -4.03644       -1.06545        0.92601
C         -1.96899       -0.43807        1.00349
H         -1.15488       -1.01805        1.43779
H         -2.33334        0.28497        1.73573
H         -0.70676       -0.21778       -0.62009
