23
id_1303_ca.log	Energy: -405325.6284524
C         -2.12304        2.24128       -0.08190
H         -2.96954        2.91917       -0.10348
C         -0.80893        2.75580       -0.12688
H         -0.65473        3.82769       -0.19136
C          0.27798        1.91884       -0.09552
H          1.27549        2.33369       -0.14166
C          0.09934        0.51248       -0.01637
C         -1.23150       -0.00699        0.00296
C         -2.33270        0.88767       -0.02477
H         -3.34922        0.50778       -0.01005
C         -1.39886       -1.41744        0.03990
C         -0.35880       -2.29919        0.03037
H         -0.53335       -3.36980        0.05748
C          0.95692       -1.79691       -0.00509
H          1.80127       -2.47545       -0.00471
C          1.15744       -0.44456       -0.00611
N          2.55923       -0.01631        0.03288
O          3.37572       -0.69551       -0.56641
O          2.84616        0.97213        0.68750
N         -2.76323       -1.95260        0.08578
H         -3.30403       -1.69944       -0.75464
H         -2.75488       -2.97966        0.14761
H         -3.28516       -1.60060        0.90205
