24
id_1806_ca.log	Energy: -254649.3644550
C         -2.78515       -0.18729       -1.26084
H         -2.61316       -1.26798       -1.31758
H         -2.36061        0.27353       -2.15807
H         -3.86676       -0.01824       -1.26565
C         -2.16255        0.39532        0.01168
H         -2.37439        1.47054        0.03658
C         -2.78217       -0.24515        1.25748
H         -3.86334       -0.07411        1.27366
H         -2.35389        0.17208        2.17405
H         -2.61307       -1.32773        1.26330
C         -0.65525        0.23463        0.00535
C          0.18273        1.35200        0.01482
H         -0.25214        2.34730        0.02612
C          1.56890        1.21496        0.00713
H          2.21835        2.08543        0.01273
C          2.10458       -0.06185       -0.01017
C          1.30783       -1.19808       -0.02239
H          1.75950       -2.18566       -0.04024
C         -0.07300       -1.03933       -0.01486
H         -0.70490       -1.92313       -0.02736
N          3.56657       -0.22204        0.00764
H          3.86087       -1.04963       -0.52670
H          4.03943        0.59492       -0.40001
H          3.92266       -0.33426        0.96651
