22
id_1573_cb.log	Energy: -277027.4963128
C         -2.87865        1.10459        0.33081
H         -3.62728        0.90212        1.09526
H         -3.36225        1.32979       -0.62292
H         -2.27809        1.97308        0.61668
C         -1.97792       -0.08332        0.17571
O         -2.02890       -1.09681        0.84413
O         -1.08361        0.10461       -0.80544
C         -0.11420       -0.94250       -1.01134
H         -0.62911       -1.90389       -0.96667
H          0.26199       -0.78248       -2.02298
C          1.01425       -0.90619        0.00577
H          1.48120       -1.89673        0.00904
H          0.58303       -0.75019        1.01156
N          2.05762        0.07844       -0.27756
C          3.08441       -0.04535        0.75242
H          3.50377       -1.05527        0.74281
H          2.68686        0.15230        1.76333
H          3.89149        0.66616        0.55868
C          1.51406        1.43337       -0.23306
H          0.98105        1.63775        0.71323
H          0.82028        1.59971       -1.05916
H          2.33205        2.15262       -0.32723
