16
id_1450_ca.log	Energy: -1838905.6138240
C         -4.20221       -0.65341       -0.00001
H         -5.21318       -0.25314        0.00000
H         -4.06370       -1.26697        0.89470
H         -4.06370       -1.26696       -0.89472
N         -3.27756        0.47089       -0.00000
H         -3.63465        1.42014       -0.00001
C         -1.96447        0.34808        0.00000
N         -1.18962        1.45629        0.00000
C          0.11177        1.29766        0.00000
H          0.71498        2.20197        0.00001
C          0.74227        0.03197        0.00000
C         -0.06033       -1.06861        0.00001
H          0.28636       -2.09479        0.00001
N         -1.40334       -0.89075        0.00001
Br         2.60863       -0.11453       -0.00000
H         -1.99667       -1.72092        0.00001
