25
id_1035_cb.log	Energy: -208059.2492152
C          4.15484       -0.23297        0.16439
H          5.02187        0.38552       -0.08719
H          4.26115       -1.18916       -0.35972
H          4.18962       -0.43828        1.24000
C          2.84578        0.45202       -0.21544
H          2.84219        0.67314       -1.29062
H          2.77056        1.41815        0.30011
C          1.62167       -0.39441        0.12591
H          1.62329       -0.61545        1.20268
H          1.69620       -1.36287       -0.38824
C          0.30297        0.27817       -0.24901
H          0.29518        0.48654       -1.32861
H          0.24602        1.25141        0.25674
C         -0.91719       -0.56655        0.11071
H         -0.94837       -0.72212        1.19995
H         -0.81154       -1.56053       -0.34568
C         -2.25358        0.03884       -0.33158
C         -3.40557       -0.89351        0.01637
H         -3.26096       -1.88209       -0.43012
H         -4.35812       -0.48766       -0.33662
H         -3.47207       -1.02065        1.10417
N         -2.53175        1.36490        0.24190
H         -1.75874        1.98622        0.00475
H         -2.48483        1.26710        1.25857
H         -2.22283        0.16691       -1.42158
