32
id_1138_cb.log	Energy: -328326.0299181
C         -2.27320       -3.15634       -0.47457
H         -2.59662       -3.52203       -1.45325
H         -3.14182       -3.17026        0.19319
H         -1.53609       -3.86279       -0.07678
C         -1.68173       -1.75377       -0.57023
H         -2.40992       -1.06977       -1.01916
H         -0.80362       -1.76036       -1.22661
C         -1.28411       -1.23273        0.81380
H         -0.72069       -2.00714        1.34765
H         -2.18732       -1.05516        1.40600
N         -0.51209        0.00403        0.82627
C         -1.26195        1.25484        0.80243
H         -2.18759        1.08520        1.36120
H         -0.70535        2.01546        1.36314
C         -1.60379        1.79709       -0.58818
H         -0.69927        1.81940       -1.20700
H         -2.30833        1.11739       -1.07916
C         -2.20527        3.19549       -0.49368
H         -3.10301        3.19431        0.13449
H         -2.48597        3.57761       -1.47924
H         -1.48987        3.89742       -0.05087
C          0.80495       -0.00926        0.38778
C          1.49543       -1.22025        0.15542
H          0.98775       -2.17167        0.26276
C          2.83535       -1.22264       -0.21711
H          3.32747       -2.17702       -0.38301
C          3.54285       -0.03445       -0.38529
H          4.58655       -0.04410       -0.68100
C          2.87015        1.16689       -0.17184
H          3.39010        2.11216       -0.30086
C          1.53089        1.18905        0.20098
H          1.05086        2.14961        0.34758
