28
id_1919_cb.log	Energy: -326349.8412174
C          2.28604       -1.89859       -0.55387
H          1.84049       -1.51457       -1.47539
H          1.58700       -2.59638       -0.08399
H          3.19852       -2.44370       -0.81175
C          2.62497       -0.76911        0.39596
H          3.30989       -0.04785       -0.05368
H          3.05642       -1.14235        1.32494
O          1.42764       -0.07347        0.81254
C          0.92479        0.82511       -0.03608
O          1.44581        1.12305       -1.09377
C         -0.39224        1.40430        0.43182
C         -1.52856        0.66848       -0.29935
H         -2.47550        1.09791        0.05621
H         -1.44235        0.91359       -1.36685
C         -1.57126       -0.85447       -0.12890
H         -0.63635       -1.27541       -0.52702
C         -1.69989       -1.26410        1.33822
H         -1.80338       -2.35074        1.42746
H         -2.59008       -0.80389        1.78503
H         -0.82928       -0.96296        1.92837
C         -2.72997       -1.42665       -0.94427
H         -3.68660       -1.04294       -0.56932
H         -2.75636       -2.51914       -0.87645
H         -2.64771       -1.15233       -2.00129
N         -0.36508        2.84526        0.17166
H         -1.29061        3.20807        0.40008
H         -0.27444        2.96318       -0.83855
H         -0.47493        1.24616        1.50919
