12
id_1444_cb.log	Energy: -200536.0953305
C         -1.81340        0.00000        0.00182
H         -2.89558        0.00000        0.00609
C         -1.07393       -1.17541        0.00296
H         -1.56938       -2.14333        0.00900
N          0.25856       -1.19979       -0.00059
C          0.86704       -0.00000       -0.00556
N          0.25856        1.19979       -0.00059
C         -1.07393        1.17541        0.00296
H         -1.56937        2.14334        0.00900
N          2.22924       -0.00000       -0.06618
H          2.68757        0.85631        0.21721
H          2.68757       -0.85631        0.21721
