32
id_1285_ca.log	Energy: -398824.7580122
C         -4.68294        0.11438       -0.16290
H         -5.72846        0.33782       -0.34797
C         -4.01684       -0.80667       -0.97056
H         -4.54003       -1.30224       -1.78123
C         -2.67574       -1.09870       -0.73961
H         -2.14107       -1.81548       -1.35640
C         -2.03047       -0.45435        0.30735
C         -2.67129        0.46320        1.12746
H         -2.13356        0.94055        1.94168
C         -4.01344        0.74558        0.88320
H         -4.53257        1.45834        1.51493
N         -0.60466       -0.73341        0.52675
H         -0.34293       -0.47851        1.49019
C          0.31247        0.00106       -0.42863
C          0.20927        1.52281       -0.24614
H         -0.57323        1.96562       -0.86375
H         -0.01952        1.73469        0.80467
C          1.62338        2.04696       -0.56829
H          1.87190        2.94764       -0.00188
H          1.71347        2.29088       -1.63294
C          2.51054        0.87265       -0.23153
C          1.76501       -0.30563       -0.15624
C          2.36990       -1.53191        0.09959
H          1.78936       -2.44989        0.14469
C          3.74903       -1.56178        0.30580
H          4.24121       -2.50532        0.51884
C          4.49938       -0.38577        0.24042
H          5.57168       -0.42480        0.40586
C          3.88724        0.83756       -0.03447
H          4.47580        1.74901       -0.08684
H          0.00347       -0.32598       -1.42576
H         -0.43574       -1.74484        0.43602
