12
id_1939_ca.log	Energy: -1080681.9753717
C         -0.54457       -0.48838       -0.80000
C         -1.89890       -0.08471       -0.20378
O         -2.52204       -0.79123        0.55399
O         -2.30562        1.10242       -0.63771
H         -3.16491        1.32722       -0.22507
C          0.64220        0.10412        0.01705
Cl         0.55335       -0.42281        1.71526
Cl         0.63564        1.87983       -0.05489
Cl         2.16367       -0.49405       -0.69916
O         -0.49349       -1.88510       -0.77192
H          0.01730       -2.20562       -1.53381
H         -0.47073       -0.08696       -1.81616
