34
id_1646_cb.log	Energy: -625362.2251939
C         -3.82803       -2.18810       -0.91487
H         -4.74165       -2.76486       -0.74379
H         -2.97221       -2.85194       -0.74153
H         -3.80834       -1.86880       -1.96078
C         -3.76300       -0.99119        0.02484
H         -4.62017       -0.33549       -0.17545
C         -3.82649       -1.44632        1.48300
H         -3.85422       -0.59827        2.17371
H         -2.94801       -2.05784        1.72400
H         -4.72144       -2.05188        1.65874
N         -2.55810       -0.20776       -0.29125
H         -1.74807       -0.81288       -0.13760
C         -2.39343        0.98891        0.53226
H         -3.34677        1.52970        0.53623
H         -2.11756        0.78390        1.57590
C         -1.32969        1.88486       -0.11570
C          0.05083        1.26076        0.00307
C          0.67356        0.64380       -1.07791
H          0.18586        0.64401       -2.04801
C          1.92241        0.03390       -0.94205
H          2.37493       -0.43528       -1.80878
C          2.56985        0.03660        0.29358
C          1.94987        0.65907        1.38724
H          2.44530        0.67454        2.35461
C          0.70845        1.25952        1.23891
H          0.24230        1.74090        2.09598
S          4.15709       -0.70354        0.58660
C          4.58634       -1.38120       -1.03533
H          4.67083       -0.59201       -1.78520
H          3.86024       -2.13106       -1.35577
H          5.56009       -1.85941       -0.91187
O         -1.69716        2.12552       -1.46325
H         -2.08905        1.27839       -1.75376
H         -1.32545        2.85139        0.40023
