37
id_193_cb.log	Energy: -447837.2627778
C          3.49248        2.37190        0.54838
H          4.33381        3.00232        0.84621
H          2.76199        2.36905        1.36425
H          3.00876        2.84279       -0.31498
C          3.96497        0.97707        0.22619
C          5.32692        0.67437        0.28042
H          6.02690        1.46124        0.54993
C          5.80069       -0.60595        0.00303
H          6.86520       -0.81403        0.05070
C          4.90007       -1.61066       -0.34358
H          5.25445       -2.61020       -0.57627
C          3.54082       -1.32502       -0.40743
H          2.84469       -2.10256       -0.70908
C          3.04994       -0.04348       -0.11518
C          1.60764        0.24668       -0.16762
H          1.33239        1.28381       -0.34847
C          0.63913       -0.66826        0.01204
H          0.92289       -1.69236        0.25569
C         -0.80622       -0.43483       -0.05488
C         -1.68582       -1.45452        0.33153
H         -1.27668       -2.40257        0.67308
C         -3.06378       -1.29119        0.30630
H         -3.68889       -2.11455        0.62937
C         -3.64018       -0.08138       -0.12994
C         -2.75621        0.95093       -0.51598
H         -3.14323        1.90501       -0.85276
C         -1.38303        0.77087       -0.48368
H         -0.74902        1.59276       -0.80478
N         -5.02037        0.08316       -0.20381
C         -5.83261       -0.84269        0.57538
H         -6.88196       -0.57165        0.45687
H         -5.58210       -0.82384        1.64611
H         -5.71350       -1.86548        0.21083
C         -5.51856        1.45331       -0.22231
H         -6.60860        1.42815       -0.22299
H         -5.20187        1.97160       -1.13006
H         -5.18022        2.03546        0.64708
