18
id_1172_ca.log	Energy: -205335.8788432
C         -2.55302       -1.02077        0.00936
H         -2.93028       -1.10655        1.03432
H         -2.43209       -2.03177       -0.38721
H         -3.31372       -0.50106       -0.57898
C         -1.24940       -0.26897       -0.01030
C         -1.22525        1.12981       -0.00120
H         -2.16546        1.67431       -0.00303
C         -0.02306        1.83130        0.00383
H         -0.02682        2.91620        0.00545
C          1.19114        1.14849       -0.00008
H          2.14022        1.67573       -0.00121
C          1.15151       -0.23622       -0.01011
C         -0.03349       -0.95536       -0.01770
H         -0.01267       -2.04215       -0.03298
N          2.42117       -0.97862        0.00970
H          2.32946       -1.90018       -0.43636
H          3.16491       -0.46746       -0.48351
H          2.74776       -1.13638        0.97289
