30
id_1611_cb.log	Energy: -1964301.2647740
C          4.28399       -0.36318       -1.50631
H          3.55189       -0.46602       -2.31700
H          5.21038       -0.85533       -1.81951
H          4.49867        0.70102       -1.37047
C          3.74186       -1.00236       -0.22783
H          4.46421       -0.83571        0.58153
C          3.54917       -2.50140       -0.41556
H          4.49079       -2.97933       -0.70108
H          2.81880       -2.69238       -1.21134
H          3.18560       -2.96970        0.50358
N          2.46954       -0.41587        0.22393
H          1.77627       -0.58684       -0.50851
C          2.53235        1.02509        0.46248
H          3.42084        1.22922        1.07058
H          2.60180        1.63155       -0.45075
C          1.29327        1.43928        1.26655
C          0.03888        1.34555        0.41094
C         -0.17078        2.27161       -0.61563
H          0.54931        3.07148       -0.76949
C         -1.29305        2.18072       -1.43135
H         -1.45186        2.90602       -2.22302
C         -2.22654        1.16231       -1.23905
H         -3.10560        1.08575       -1.86921
C         -2.00487        0.25013       -0.21637
C         -0.88934        0.32540        0.61145
H         -0.74520       -0.39228        1.41146
Br        -3.26641       -1.14406        0.06760
O          1.21252        0.63390        2.42798
H          1.52704       -0.24209        2.12731
H          1.41500        2.47781        1.59275
