18
id_1988_ca.log	Energy: -181567.5373805
C         -2.31689       -0.69446       -0.12769
H         -2.01993       -1.59814        0.41147
H         -2.28871       -0.91100       -1.20053
H         -3.35084       -0.46869        0.14467
C         -1.41537        0.48900        0.21347
H         -1.37788        0.63775        1.29973
H         -1.82348        1.40545       -0.22658
C          0.00281        0.30496       -0.30485
C          0.73807       -0.87971        0.29239
H          0.22888       -1.80304       -0.00400
H          0.72381       -0.80697        1.38815
O          2.06591       -0.83932       -0.20785
H          2.60795       -1.43640        0.33007
N          0.81095        1.52780        0.02237
H          0.77086        1.73097        1.02939
H          0.46444        2.35212       -0.48066
H          0.01434        0.22928       -1.39549
H          1.79486        1.36996       -0.22997
