16
id_1864_cb.log	Energy: -215123.8846581
C          2.86929       -0.04840       -0.00697
H          3.22717       -1.08156       -0.01418
H          3.28547        0.44778        0.87612
H          3.27880        0.45808       -0.88730
C          1.36623       -0.00243       -0.00095
C          0.65875        1.20963       -0.00050
H          1.20106        2.15235       -0.00649
C         -0.72130        1.20909        0.00582
H         -1.28997        2.13363        0.00670
C         -1.39453       -0.02746        0.00860
N         -0.74359       -1.19418        0.00363
C          0.59812       -1.15763        0.00034
H          1.09329       -2.12750       -0.00458
N         -2.77684       -0.07349        0.07749
H         -3.16762       -0.94393       -0.26592
H         -3.24460        0.73802       -0.31026
