28
id_1403_ca.log	Energy: -303210.1882643
C          3.59371        0.31636       -0.56491
H          4.55994        0.57631       -0.98596
C          2.99203        1.15644        0.36991
H          3.48758        2.07135        0.67905
C          1.75178        0.82292        0.91061
H          1.27843        1.47462        1.64045
C          1.11125       -0.35533        0.52302
C          1.72085       -1.19677       -0.41202
H          1.22333       -2.11786       -0.70764
C          2.95665       -0.86092       -0.95688
H          3.42550       -1.51929       -1.68135
C         -0.23938       -0.71146        1.08200
H         -0.47885       -0.12865        1.97423
H         -0.31293       -1.77658        1.31322
N         -1.32481       -0.42459        0.08882
C         -1.46022        1.02854       -0.29032
H         -1.24900        1.60288        0.61366
H         -0.71278        1.25775       -1.04831
C         -2.91929        1.18765       -0.75523
H         -3.39902        1.97774       -0.17535
H         -2.97168        1.46106       -1.80956
C         -3.59185       -0.17655       -0.49162
H         -3.60725       -0.78213       -1.40196
H         -4.61458       -0.07991       -0.12552
C         -2.69375       -0.83650        0.54180
H         -2.74199       -1.92450        0.58272
H         -2.82894       -0.41376        1.54078
H         -1.11469       -0.95313       -0.76831
