27
id_1413_ca.log	Energy: -232254.0714789
C          3.74244        0.11966       -0.13283
H          3.81031        0.14593       -1.22565
H          4.56269       -0.49998        0.24082
H          3.89332        1.13936        0.23678
C          2.39019       -0.42627        0.31307
H          2.34185       -0.45583        1.40872
H          2.27558       -1.45866       -0.03679
C          1.23625        0.42513       -0.21823
H          1.22851        0.39419       -1.31667
H          1.39288        1.46746        0.08296
C         -0.10383       -0.06851        0.29748
C         -0.46760       -1.50824       -0.06551
H         -0.07950       -1.73392       -1.06458
H         -0.01546       -2.20860        0.63811
C         -2.01297       -1.56414       -0.05425
H         -2.39305       -2.13888        0.79121
H         -2.39221       -2.01972       -0.97002
C         -2.47295       -0.10625        0.06264
H         -2.72467        0.16676        1.08947
H         -3.28898        0.17752       -0.60112
N         -1.26166        0.70499       -0.29346
C         -1.35865        2.12194        0.13335
H         -2.28114        2.54033       -0.26891
H         -0.50122        2.67247       -0.25087
H         -1.37367        2.14519        1.22378
H         -0.19087        0.09055        1.37852
H         -1.14999        0.68098       -1.31593
