17
id_1527_ca.log	Energy: -309354.1358492
C          1.96323        1.51904       -0.00001
H          2.76983        2.24622       -0.00001
C          0.65849        1.94781        0.00000
H          0.40608        3.00364        0.00000
C         -0.38210        0.98284        0.00001
C         -1.75912        1.27076        0.00001
H         -2.11424        2.29705        0.00001
C         -2.64151        0.21630       -0.00000
H         -3.71430        0.37098        0.00001
N         -2.25714       -1.08697       -0.00000
N         -0.99204       -1.38043       -0.00001
C         -0.05969       -0.39856       -0.00000
C          1.31126       -0.80802        0.00000
C          2.30172        0.14015       -0.00000
H          3.34134       -0.17178       -0.00000
O          1.61524       -2.13209        0.00001
H          0.77992       -2.63959        0.00000
