21
id_1437_cb.log	Energy: -263821.5974078
C         -2.36454        1.00692       -0.29115
H         -2.51860        1.59202        0.61918
H         -3.32877        0.69027       -0.68812
H         -1.86974        1.64865       -1.02711
C         -1.53971       -0.23119       -0.02521
O         -1.94569       -1.34476       -0.38190
N         -0.36684       -0.07889        0.64717
C          0.34048        1.20258        0.71318
H         -0.36548        2.03228        0.68532
H          0.86767        1.24299        1.67339
C          1.34834        1.29033       -0.43204
H          1.91394        2.22271       -0.35378
H          0.79981        1.30807       -1.38209
N          2.28797        0.16361       -0.46780
H          2.83409        0.20682        0.39512
C          1.55902       -1.11089       -0.44581
H          1.01562       -1.21044       -1.39325
H          2.27957       -1.93087       -0.38518
C          0.55879       -1.21263        0.70327
H          1.08666       -1.16851        1.66269
H         -0.01148       -2.13965        0.65993
