14
id_1508_ca.log	Energy: -240057.2689397
C         -0.67134       -1.22209        0.00001
H         -1.20338       -2.16888        0.00002
C          0.72174       -1.19326        0.00001
H          1.28984       -2.12011        0.00001
C          1.39187        0.02963       -0.00000
C          0.67134        1.22209       -0.00001
H          1.20338        2.16888       -0.00002
C         -0.72174        1.19326       -0.00001
H         -1.28984        2.12011       -0.00001
C         -1.39187       -0.02963        0.00000
O         -2.76908       -0.11602       -0.00003
H         -3.15342        0.77633        0.00017
O          2.76908        0.11602        0.00003
H          3.15342       -0.77633       -0.00017
