16
id_1448_ca.log	Energy: -225480.8614811
C          2.48266       -0.93565       -0.00000
H          2.35894       -2.01818       -0.00002
H          3.05507       -0.62937        0.88142
H          3.05509       -0.62934       -0.88140
C          1.15911       -0.24684       -0.00000
C          1.10898        1.17006        0.00000
H          2.01343        1.76355        0.00000
C         -0.11915        1.75298        0.00000
H         -0.29899        2.82047        0.00000
N         -1.22585        0.96723       -0.00000
C         -1.12792       -0.38581        0.00000
N          0.06736       -0.99842       -0.00000
N         -2.23465       -1.11503       -0.00000
H         -2.15125       -2.12382        0.00001
H         -3.15525       -0.69176        0.00001
H         -2.14725        1.40340       -0.00001
