50
id_1038_ca.log	Energy: -522463.3413163
C          3.60307        2.58276        0.90681
H          4.06860        3.50527        0.54672
H          4.24502        2.16480        1.69005
H          2.64530        2.84919        1.37073
C          3.39297        1.57903       -0.22211
H          4.35111        1.35045       -0.70596
H          2.75558        2.02879       -0.99586
C          2.74864        0.28291        0.26795
H          1.84108        0.53842        0.83235
H          3.42390       -0.20980        0.98065
C          2.40476       -0.66868       -0.87791
H          3.33057       -1.00341       -1.36127
H          1.84794       -0.11564       -1.64470
C          1.58681       -1.90514       -0.47291
C          2.28680       -2.79085        0.56849
H          2.35290       -2.24990        1.52121
H          1.65876       -3.67036        0.75434
C          3.67919       -3.24236        0.13853
H          3.64995       -3.71624       -0.84899
H          4.08684       -3.96801        0.84834
H          4.37748       -2.40103        0.08688
C          0.22119       -1.52802        0.08471
H          0.31988       -0.95548        1.01474
H         -0.39187       -2.41660        0.27103
O         -0.43136       -0.69491       -0.89945
N         -1.57107       -0.06232       -0.37859
C         -1.56595        1.34445       -0.87331
H         -1.55696        1.30522       -1.96354
H         -2.49222        1.80278       -0.51710
C         -0.35724        2.06413       -0.30206
C         -0.38887        3.54165       -0.64616
H         -1.28864        4.00979       -0.23561
H         -0.37469        3.68572       -1.73053
H          0.49083        4.03523       -0.22161
O         -0.42483        1.84120        1.10480
H          0.40867        2.14922        1.49700
C         -2.80078       -0.83968       -0.69776
H         -3.01339       -0.71279       -1.76034
H         -2.55699       -1.88327       -0.48399
C         -3.94379       -0.37146        0.20127
C         -5.09912       -1.35116        0.11719
H         -5.44589       -1.45037       -0.91550
H         -5.92913       -0.99905        0.73422
H         -4.78216       -2.33439        0.47814
O         -3.44041       -0.32043        1.53784
H         -3.46301        0.60075        1.83964
H          1.42086       -2.50938       -1.37501
H          0.55272        1.60639       -0.70687
H         -4.27931        0.62345       -0.10531
H         -1.48945       -0.01581        0.65431
