41
id_1350_cb.log	Energy: -948272.0151373
C         -1.84757        0.48994        2.88570
H         -2.04837       -0.53875        3.20013
H         -2.74476        1.09048        3.06231
H         -1.04115        0.87601        3.51697
C         -1.42874        0.56957        1.41945
C         -0.26780       -0.35971        1.15932
H         -0.44507       -1.39990        1.43620
C          0.91187       -0.06462        0.58000
C          1.88441       -1.11751        0.23477
C          3.24594       -1.00915        0.11623
H          3.77633       -0.07781        0.28152
C          3.88251       -2.24095       -0.21950
H          4.95277       -2.35493       -0.34612
C          2.99564       -3.26614       -0.36485
H          3.19815       -4.29836       -0.61898
S          1.37233       -2.74781       -0.09833
C          1.30669        1.32345        0.25789
C          1.30890        2.41414        1.08502
H          1.03623        2.34968        2.13332
C          1.71275        3.61733        0.43107
H          1.78244        4.58048        0.92282
C          2.01338        3.42093       -0.88397
H          2.34912        4.14856       -1.61131
S          1.81817        1.77066       -1.34485
N         -2.56415        0.31930        0.50529
C         -2.20019        0.64368       -0.87735
H         -1.76459        1.64964       -0.89047
H         -1.42736       -0.04939       -1.26102
C         -3.41861        0.57982       -1.79309
H         -4.14483        1.33856       -1.47627
H         -3.11434        0.82290       -2.81678
C         -4.06256       -0.80470       -1.73042
H         -4.97600       -0.83698       -2.33348
H         -3.36733       -1.54238       -2.15429
C         -4.35550       -1.17602       -0.27742
H         -4.73484       -2.20099       -0.20593
H         -5.12751       -0.50938        0.12642
C         -3.09283       -1.04768        0.57028
H         -2.35324       -1.78429        0.20546
H         -3.31549       -1.29500        1.61206
H         -1.11874        1.59699        1.21246
