27
id_1457_ca.log	Energy: -456240.2967401
C         -4.63255       -1.08917        0.05492
H         -4.91497       -0.14090        0.51606
H         -5.15806       -1.91584        0.52905
H         -4.84192       -1.06594       -1.01619
O         -3.23534       -1.34565        0.27702
C         -2.38225       -0.45267       -0.22817
O         -2.74058        0.53600       -0.84257
C         -0.94865       -0.82635        0.04330
H         -0.83681       -1.01160        1.11654
H         -0.74521       -1.77304       -0.46913
C          0.02165        0.24278       -0.44623
C          1.47229       -0.15703       -0.21774
C          1.95081       -0.38976        1.07668
H          1.28403       -0.28045        1.92987
C          3.27926       -0.75962        1.28005
H          3.64061       -0.93666        2.28897
C          4.14232       -0.90013        0.19167
H          5.17723       -1.18887        0.35068
C          3.67051       -0.66741       -1.09976
H          4.33609       -0.77368       -1.95156
C          2.34097       -0.29457       -1.30249
H          1.97333       -0.11091       -2.30910
C         -0.23425        1.56034        0.25763
O         -0.79499        1.68047        1.32993
O          0.27124        2.59997       -0.41712
H          0.12605        3.41996        0.09464
H         -0.12371        0.41321       -1.51731
