17
id_1797_ca.log	Energy: -371200.8838169
C          2.08235        1.00293        0.00000
H          3.05891        1.47293        0.00000
C          0.91752        1.76205        0.00000
H          0.97455        2.84559        0.00001
C         -0.32298        1.14491        0.00000
C         -0.39337       -0.25114        0.00000
C          0.75447       -1.02775       -0.00000
H          0.69627       -2.10900       -0.00001
C          1.97686       -0.37792       -0.00000
F          3.08805       -1.11519       -0.00001
N         -1.67618       -0.95655       -0.00000
O         -2.69558       -0.28149       -0.00002
O         -1.66375       -2.17028        0.00002
N         -1.50875        1.99648        0.00001
H         -2.10251        1.82719       -0.82402
H         -1.23712        2.98897        0.00002
H         -2.10252        1.82718        0.82401
