20
id_187_cb.log	Energy: -565154.4016857
C         -1.23553       -2.25794       -0.03107
H         -1.40189       -3.33085       -0.04328
C          0.04639       -1.76769       -0.01544
H          0.89374       -2.44253       -0.01685
C          0.25749       -0.36467       -0.00205
C         -0.86013        0.52594       -0.00588
C         -0.64220        1.92815       -0.03372
H         -1.48829        2.60570       -0.07422
C          0.62841        2.44488       -0.03223
H          0.78569        3.51787       -0.05728
C          1.74799        1.58481       -0.00497
H          2.75368        1.99099       -0.00033
C          1.55272        0.22944        0.00626
Cl         2.96733       -0.80709        0.02592
C         -2.18689       -0.02517        0.00635
C         -2.34980       -1.39679       -0.01327
H         -3.35498       -1.80894       -0.00503
N         -3.29014        0.82525       -0.03147
H         -3.19726        1.66049        0.53692
H         -4.15511        0.34530        0.19591
