20
id_1365_cb.log	Energy: -601392.6652816
C          1.28339        2.08917       -0.71457
H          1.49922        3.00340       -1.25968
C          0.07932        1.95283       -0.02810
H         -0.64395        2.76514       -0.03848
C         -0.21263        0.78265        0.68456
C          0.72831       -0.25107        0.69561
H          0.52626       -1.16816        1.24226
C          1.92640       -0.09714        0.00368
C          2.22518        1.05898       -0.70707
H          3.16701        1.15562       -1.23753
Cl         3.09448       -1.40573        0.03397
C         -1.53279        0.63523        1.40372
H         -1.49451       -0.23062        2.07124
H         -1.70600        1.52213        2.02382
C         -2.70731        0.48651        0.43077
H         -2.77629        1.36112       -0.22358
H         -3.64433        0.43813        1.00114
C         -2.65004       -0.77631       -0.43210
O         -2.16849       -1.82627        0.08012
O         -3.12808       -0.70303       -1.60208
