19
id_1377_cb.log	Energy: -359434.2388794
C          0.03154        3.26760        0.00000
H         -0.51128        4.20742        0.00000
C          1.42752        3.25337        0.00000
H          1.98816        4.18351        0.00000
C          2.11202        2.04195        0.00000
H          3.19926        2.01695        0.00000
C          1.40957        0.83554        0.00000
C          0.00000        0.81832        0.00000
C         -0.65843        2.06112        0.00000
H         -1.74581        2.06210        0.00000
C         -0.83208       -0.39021        0.00000
H         -1.90211       -0.18033        0.00000
C         -0.47813       -1.68622        0.00000
H          0.55481       -2.01078        0.00000
C         -1.50421       -2.78736        0.00000
O         -2.73447       -2.49288        0.00000
O         -1.04697       -3.96983        0.00000
O          2.07359       -0.35795        0.00000
H          3.03285       -0.19827        0.00000
