31
id_168_ca.log	Energy: -351159.4250833
C         -2.89311        2.04462       -0.71627
H         -3.63178        1.85252       -1.50144
H         -2.01146        2.49904       -1.17463
H         -3.31369        2.75385        0.00240
C         -2.48801        0.74921       -0.03824
C         -1.89950       -0.26268       -1.01326
H         -2.60144       -0.38896       -1.84722
H         -0.99520        0.19888       -1.42600
C         -1.55402       -1.63141       -0.42127
H         -2.46904       -2.16910       -0.14174
H         -1.08540       -2.22852       -1.21148
C         -0.61482       -1.58040        0.79419
H         -0.40878       -2.61049        1.10733
H         -1.11629       -1.09366        1.63977
C          0.68384       -0.86300        0.50783
C          1.58622       -1.37233       -0.43504
H          1.35592       -2.30477       -0.94574
C          2.77478       -0.71602       -0.72949
H          3.47339       -1.11621       -1.45772
C          3.08240        0.47946       -0.07632
C          2.20236        1.00520        0.86606
H          2.45051        1.93425        1.37310
C          1.01441        0.33256        1.14802
H          0.33467        0.74689        1.88908
O          4.26598        1.09365       -0.39860
H          4.35049        1.91013        0.12131
N         -3.71197        0.16262        0.61875
H         -4.15850        0.84974        1.23714
H         -3.48759       -0.66482        1.18366
H         -1.79494        0.94983        0.78228
H         -4.40242       -0.11741       -0.08982
