40
id_1854_ca.log	Energy: -886741.0863663
C         -3.88427        1.90220        0.21913
H         -4.96968        1.87055        0.24292
C         -3.22711        2.64434       -0.79538
H         -3.81669        3.17453       -1.53777
C         -1.85422        2.69408       -0.84533
H         -1.34613        3.25780       -1.62390
C         -1.07152        1.99511        0.11384
C          0.34999        1.98769        0.04811
H          0.86108        2.53353       -0.73950
C          1.04845        1.23574        0.95156
C          0.41978        0.52199        1.99689
H          1.03239       -0.04258        2.69303
C         -0.94872        0.53510        2.08262
H         -1.45344       -0.02332        2.86731
C         -1.73175        1.25104        1.13432
C         -3.15233        1.22489        1.16515
H         -3.64618        0.65008        1.94525
O          2.44830        1.12251        0.88813
P          3.21732        0.52031       -0.38746
O          2.92836        1.18862       -1.67410
O          4.73447        0.62160        0.02810
H          4.97947        0.16720        0.85814
O          2.94280       -1.06560       -0.36499
C          1.62713       -1.55439       -0.29811
C          1.36326       -2.49555        0.72102
H          2.17833       -2.83274        1.35388
C          0.07483       -2.93219        0.90408
H         -0.15436       -3.64265        1.69410
C         -0.98659       -2.42892        0.10220
C         -2.34422       -2.77685        0.34436
H         -2.56927       -3.46846        1.15267
C         -3.35081       -2.23791       -0.42009
H         -4.38606       -2.49892       -0.22054
C         -3.04766       -1.33604       -1.47397
H         -3.85446       -0.91519       -2.06750
C         -1.74540       -0.98785       -1.73751
H         -1.50505       -0.28891       -2.53542
C         -0.68563       -1.51756       -0.95017
C          0.65828       -1.10650       -1.15397
H          0.89000       -0.39316       -1.94030
