26
id_1701_cb.log	Energy: -231965.7604706
C         -3.07086        0.40392       -0.08396
H         -3.12930        0.49622       -1.17514
H         -3.38866        1.35755        0.35134
H         -3.78524       -0.36618        0.22678
C         -1.65268        0.04538        0.34419
C         -1.20198       -1.29199       -0.23959
H         -1.30013       -1.25944       -1.33335
H         -1.84180       -2.10548        0.12223
C          0.24582       -1.58409        0.12639
H          0.56442       -2.53153       -0.32030
H          0.32787       -1.70154        1.22503
N          1.15476       -0.53220       -0.34212
C          0.79254        0.75111        0.28814
C         -0.64889        1.12156       -0.06585
H         -0.89788        2.07361        0.41853
H         -0.71373        1.28374       -1.15208
C          1.73721        1.87565       -0.12270
H          1.35565        2.82910        0.25530
H          1.80051        1.94321       -1.21461
H          2.74652        1.74380        0.27491
C          2.51680       -0.91384        0.01532
H          2.67756       -0.91567        1.10857
H          3.24627       -0.23982       -0.43791
H          2.71890       -1.92191       -0.35713
H         -1.62383       -0.04044        1.44095
H          0.85185        0.63402        1.39000
