37
id_1241_cb.log	Energy: -578207.2885135
C          2.36462        3.30495       -0.90375
H          3.00013        4.11206       -1.25679
C          2.59450        2.71934        0.34234
H          3.41513        3.06500        0.96497
C          1.77558        1.68667        0.79487
H          1.97687        1.23320        1.76157
C          0.70344        1.22205        0.02178
C          0.49873        1.80075       -1.23547
H         -0.30431        1.44178       -1.87353
C          1.31644        2.83547       -1.69336
H          1.13186        3.27065       -2.67169
C         -0.09906       -0.00448        0.48070
C         -1.53964       -0.03298       -0.05838
C         -2.28846        1.14987       -0.12574
H         -1.81994        2.09947        0.11809
C         -3.63230        1.13051       -0.49563
H         -4.18743        2.06302       -0.54603
C         -4.26170       -0.07802       -0.79493
H         -5.30786       -0.09493       -1.08651
C         -3.53539       -1.26454       -0.70539
H         -4.01437       -2.21576       -0.92016
C         -2.19039       -1.24135       -0.33455
H         -1.64887       -2.17932       -0.25502
C          0.75102       -1.19829        0.02250
C          1.70158       -1.78348        0.86627
H          1.78062       -1.45959        1.89954
C          2.55914       -2.78050        0.39866
H          3.28531       -3.22173        1.07581
C          2.48754       -3.20755       -0.92649
H          3.15231       -3.98603       -1.28972
C          1.55836       -2.61666       -1.78376
H          1.49788       -2.92802       -2.82292
C          0.70617       -1.61927       -1.31311
H         -0.00081       -1.15858       -1.99921
C         -0.37648       -0.00730        2.03087
O         -0.45594        1.10682        2.60843
O         -0.60890       -1.12338        2.56371
