19
id_1787_ca.log	Energy: -1031941.8873555
C         -2.16140        2.74448       -0.00410
H         -1.62115        3.04864        0.89446
H         -3.14327        3.22186       -0.00670
H         -1.61923        3.04259       -0.90355
S         -2.50028        0.96676        0.00117
C         -0.87820        0.27556        0.00140
C          0.28711        1.04972        0.00195
H          0.23975        2.13204        0.00296
C          1.53468        0.44308        0.00100
C          1.64108       -0.94218       -0.00103
C          0.50432       -1.73323       -0.00112
H          0.58984       -2.81566       -0.00254
C         -0.73938       -1.12184        0.00049
Cl        -2.15265       -2.13450        0.00051
N          2.95524       -1.57909       -0.00206
H          3.52409       -1.29909       -0.81457
H          2.86131       -2.60386       -0.04130
Cl         2.96793        1.42415        0.00118
H          3.49749       -1.35857        0.84664
