26
id_122_ca.log	Energy: -785111.9050742
C          1.82357        2.36583       -0.88721
H          1.83880        1.93266       -1.89214
H          2.62088        1.91532       -0.28882
H          2.03451        3.43465       -0.97401
C          0.45806        2.20806       -0.24078
H         -0.28909        2.72111       -0.85120
C          0.40037        2.72239        1.18587
H          0.69356        3.77528        1.16866
H          1.09871        2.19275        1.84040
H         -0.60542        2.66249        1.60804
N          0.02899        0.74034       -0.32231
C         -1.40443        0.55710        0.08547
H         -1.45100        0.62956        1.17277
H         -1.97476        1.37108       -0.36588
C         -1.92260       -0.78668       -0.39825
H         -1.40702       -1.62782        0.06662
H         -1.86333       -0.86932       -1.48445
Cl        -3.65301       -0.91964        0.05618
C          0.95545       -0.20853        0.40531
H          1.73885        0.37406        0.88822
H          0.38003       -0.71821        1.17938
C          1.56033       -1.19770       -0.57627
H          2.16911       -0.68991       -1.32648
H          0.79766       -1.80459       -1.06721
Cl         2.63631       -2.31355        0.32415
H          0.07494        0.51983       -1.32835
