20
id_1542_ca.log	Energy: -334040.7527468
C          2.90311        1.22306        0.00000
H          3.89027        0.75934       -0.00003
H          2.80695        1.86475        0.88243
H          2.80692        1.86479       -0.88239
C          1.83975        0.17076       -0.00000
C          0.45571        0.53679       -0.00000
C         -0.01727        1.87218       -0.00000
H          0.68486        2.69928       -0.00000
C         -1.37456        2.10290        0.00000
H         -1.75032        3.12146        0.00000
C         -2.30414        1.03725        0.00000
H         -3.37181        1.23498        0.00000
C         -1.85817       -0.26321        0.00000
C         -0.46135       -0.53551       -0.00000
N         -0.06126       -1.83971       -0.00000
C          1.23154       -2.04217        0.00000
H          1.57452       -3.07235        0.00000
N          2.20924       -1.09685       -0.00000
O         -2.74181       -1.29957        0.00000
H         -2.23046       -2.13206        0.00000
