21
id_1293_ca.log	Energy: -565435.3361169
C         -3.12116       -0.89934       -0.00000
H         -4.12304       -1.31348       -0.00000
C         -2.02425       -1.72000       -0.00000
H         -2.13887       -2.79985        0.00000
C         -0.71068       -1.17984       -0.00000
C          0.43272       -2.02032        0.00000
H          0.28762       -3.09638        0.00000
C          1.69810       -1.49528        0.00000
H          2.57258       -2.13636        0.00000
C          1.85583       -0.09128        0.00000
C          0.78871        0.76773       -0.00000
H          0.95981        1.83942       -0.00000
C         -0.52517        0.23121       -0.00000
C         -1.69636        1.03356       -0.00000
C         -2.95596        0.50626        0.00000
H         -3.82147        1.16202        0.00000
N         -1.54070        2.49357        0.00000
H         -1.02807        2.82701       -0.82915
H         -2.45789        2.95921        0.00000
Cl         3.47715        0.55766       -0.00000
H         -1.02807        2.82700        0.82915
