13
id_1921_cb.log	Energy: -203062.3903158
C         -2.37503       -0.00603       -0.00000
H         -3.13899       -0.78130       -0.00000
H         -2.46305        0.61547        0.89317
H         -2.46305        0.61547       -0.89317
O         -1.11811       -0.69771        0.00000
C         -0.02866        0.07798        0.00000
O         -0.07307        1.29111       -0.00000
C          1.24362       -0.74179       -0.00000
H          1.21294       -1.39621       -0.87612
H          1.21294       -1.39621        0.87611
N          2.46504        0.04118       -0.00000
H          2.43692        0.66313        0.80728
H          2.43690        0.66316       -0.80726
