30
id_1619_cb.log	Energy: -639244.2472309
C         -3.43121        2.18383       -0.32994
H         -2.73057        2.53817       -1.09585
H         -3.16927        2.65785        0.62029
H         -4.43573        2.50883       -0.61622
C         -3.36748        0.66601       -0.22129
H         -4.06215        0.33625        0.56181
C         -3.77372        0.01277       -1.54246
H         -3.05976        0.28402       -2.33014
H         -4.76712        0.35360       -1.85149
H         -3.80218       -1.07829       -1.46584
N         -2.02067        0.28070        0.23019
H         -1.35604        0.59629       -0.48030
C         -1.84444       -1.15910        0.41154
H         -2.69352       -1.53227        0.99516
H         -1.80143       -1.73108       -0.52532
C         -0.56267       -1.39440        1.22154
C          0.66899       -1.06746        0.39059
C          1.03563       -1.90970       -0.66373
H          0.45591       -2.80885       -0.85703
C          2.13633       -1.60945       -1.45840
H          2.41720       -2.27027       -2.27223
C          2.89196       -0.46234       -1.21676
H          3.75394       -0.21878       -1.82817
C          2.51557        0.36302       -0.16583
C          1.41830        0.08035        0.64169
H          1.15411        0.73746        1.46311
Cl         3.45471        1.80781        0.16110
O         -0.62665       -0.62916        2.41061
H         -1.08238        0.19171        2.13597
H         -0.51679       -2.45017        1.50982
