28
id_1566_ca.log	Energy: -529152.7302125
C          3.82944       -0.00965       -0.06043
H          4.07285        0.87707       -0.65458
H          4.06383       -0.90288       -0.64839
H          4.46763       -0.00970        0.82986
C          2.36570       -0.00084        0.37871
C          2.04450       -1.25129        1.18998
H          2.25753       -2.16016        0.61893
H          0.99470       -1.26906        1.49979
H          2.66184       -1.25841        2.09613
C          2.05764        1.25651        1.18437
H          2.67308        1.26031        2.09185
H          1.00740        1.28773        1.49169
H          2.28237        2.16038        0.60993
S          1.41440        0.00129       -1.22473
C         -0.27931        0.00202       -0.66518
C         -0.95307        1.21067       -0.46379
H         -0.43671        2.15083       -0.62838
C         -2.28489        1.21694       -0.05892
H         -2.81770        2.14995        0.09720
C         -2.92218        0.00157        0.13289
C         -2.28496       -1.21442       -0.06219
H         -2.81837       -2.14748        0.09133
C         -0.95404       -1.20754       -0.46661
H         -0.43764       -2.14729       -0.63345
N         -4.32372       -0.00271        0.57352
H         -4.85209       -0.77019        0.13761
H         -4.79843        0.87766        0.33517
H         -4.39762       -0.12432        1.59327
