11
id_1877_cb.log	Energy: -503653.1226053
C          1.01005        0.13778        0.97443
H          0.97154       -0.70529        1.66331
H          1.64703        0.92504        1.37795
C         -0.38166        0.66988        0.68985
C         -1.26417       -0.39242        0.00178
O         -1.75646       -0.06754       -1.11141
O         -1.41576       -1.48309        0.60591
O         -0.32516        1.85316       -0.08198
H         -0.83006        1.65182       -0.89517
Cl         1.81386       -0.45166       -0.53587
H         -0.83046        0.89506        1.66718
