20
id_1019_ca.log	Energy: -159038.8989133
C          3.23802       -0.20792        0.00000
H          3.31903       -0.84887       -0.88460
H          3.31903       -0.84886        0.88462
H          4.09334        0.47439        0.00000
C          1.91659        0.55344       -0.00000
H          1.86516        1.20772       -0.87935
H          1.86516        1.20772        0.87934
C          0.70908       -0.38077        0.00000
H          0.75306       -1.03484        0.88089
H          0.75306       -1.03485       -0.88089
C         -0.61397        0.38153       -0.00000
H         -0.66933        1.02872       -0.88423
H         -0.66934        1.02872        0.88423
C         -1.79445       -0.56970       -0.00000
H         -1.80856       -1.20202        0.88861
H         -1.80856       -1.20201       -0.88863
N         -3.07983        0.19847        0.00000
H         -3.14582        0.80109       -0.82846
H         -3.14582        0.80108        0.82847
H         -3.89320       -0.42671       -0.00000
