26
id_1217_cb.log	Energy: -436761.4135330
C         -1.82874       -1.05229        1.86064
H         -1.43376       -2.06225        2.01408
H         -2.92027       -1.10120        1.94617
H         -1.45557       -0.41691        2.67139
Si        -1.32228       -0.37075        0.18291
C         -1.91196       -1.50543       -1.19202
H         -1.50799       -2.51740       -1.07967
H         -1.61403       -1.12884       -2.17614
H         -3.00500       -1.58137       -1.17714
C         -2.04887        1.36433       -0.02015
H         -3.13268        1.25768       -0.15434
H         -1.91537        1.94487        0.90754
N         -1.49114        2.02180       -1.21602
H         -0.49039        2.15047       -1.06957
H         -1.87226        2.96471       -1.28476
C          0.55472       -0.19184        0.08939
C          1.35825       -1.10990       -0.60248
H          0.89804       -1.95194       -1.11550
C          2.74465       -0.96599       -0.65155
H          3.34671       -1.68993       -1.19292
C          3.35610        0.10925       -0.00972
H          4.43512        0.22534       -0.04871
C          2.57755        1.03865        0.67921
H          3.04895        1.88112        1.17675
C          1.19304        0.88630        0.72516
H          0.59995        1.62506        1.26336
