23
id_1672_cb.log	Energy: -316606.1071651
C          2.55887        1.18982       -0.78180
H          3.39399        1.21023       -1.48846
H          2.61225        2.08836       -0.15961
H          1.62446        1.22896       -1.36536
N          2.66634       -0.00000        0.05340
C          2.55885       -1.18983       -0.78178
H          2.61223       -2.08836       -0.15957
H          3.39398       -1.21026       -1.48845
H          1.62444       -1.22897       -1.36533
C          1.66265        0.00001        1.12887
H          1.84931       -0.88432        1.74748
H          1.84931        0.88435        1.74747
C          0.21206        0.00001        0.68988
C         -0.46838        1.20208        0.46896
H          0.04219        2.14520        0.64822
C         -1.79110        1.21491        0.03351
H         -2.33043        2.14050       -0.13715
C         -2.42379       -0.00000       -0.17721
C         -1.79110       -1.21491        0.03352
H         -2.33042       -2.14050       -0.13714
C         -0.46838       -1.20207        0.46897
H          0.04220       -2.14519        0.64823
F         -3.70510       -0.00001       -0.59573
