26
id_1455_cb.log	Energy: -455957.2493603
C         -1.37349        3.27243       -0.01337
H         -0.73383        3.57556        0.81784
H         -2.40283        3.14753        0.32893
H         -1.32561        4.00378       -0.81811
O         -0.89424        2.04337       -0.58214
C         -0.86420        0.98648        0.23425
O         -1.20573        1.04379        1.40246
C         -0.29974       -0.24586       -0.44107
C         -1.00099       -1.49794        0.08056
H         -0.82176       -1.62322        1.15458
H         -0.58264       -2.38121       -0.41390
C         -2.51549       -1.48760       -0.14812
O         -3.03429       -0.46566       -0.67665
O         -3.14911       -2.51964        0.21619
C          1.20510       -0.28359       -0.21863
C          1.74127       -0.36934        1.07221
H          1.07739       -0.40075        1.93325
C          3.12145       -0.41387        1.26262
H          3.52400       -0.47915        2.26949
C          3.98363       -0.37542        0.16490
H          5.05886       -0.41214        0.31433
C          3.45676       -0.28970       -1.12319
H          4.11948       -0.25950       -1.98346
C          2.07463       -0.24077       -1.31200
H          1.66557       -0.17154       -2.31718
H         -0.48528       -0.14323       -1.51344
