23
id_1272_ca.log	Energy: -584250.1215035
C          1.49601       -1.19133        0.28185
H          2.03793       -2.12927        0.36279
C          0.12008       -1.19968        0.08966
H         -0.42206       -2.13679        0.01191
C         -0.54692        0.01994       -0.00681
C          0.12011        1.23781        0.08097
H         -0.42371        2.17261       -0.00223
C          1.49863        1.22918        0.26868
H          2.04172        2.16714        0.33810
C          2.18738        0.01975        0.37378
C          3.68044        0.01776        0.55407
H          4.01987       -0.85117        1.11735
H          4.03241        0.92941        1.03564
N          4.35712       -0.04974       -0.78368
H          4.10614        0.76000       -1.36355
H          4.08223       -0.89825       -1.29344
S         -2.31410        0.01077       -0.20362
O         -2.66472       -1.17320       -0.98366
O         -2.72054        1.33413       -0.66742
N         -3.00469       -0.19421        1.27984
H         -2.74908       -1.08863        1.70145
H         -2.79744        0.58265        1.90922
H          5.37833       -0.06043       -0.67709
