33
id_1386_ca.log	Energy: -362597.2766699
C         -2.82784        1.60669       -0.41334
H         -2.99861        2.59076       -0.83852
C         -3.44040        1.22766        0.77490
H         -4.10415        1.89712        1.31052
C         -3.17984       -0.04633        1.27209
H         -3.64195       -0.37398        2.19991
N         -2.37672       -0.92928        0.67178
C         -1.79427       -0.56076       -0.48063
C         -1.98910        0.69744       -1.05177
H         -1.49320        0.94938       -1.98428
C         -0.87342       -1.57091       -1.12189
H         -1.38971       -2.53218       -1.20720
H         -0.60627       -1.25453       -2.13273
C          0.36971       -1.83206       -0.27746
H          1.06418       -2.50622       -0.78348
H          0.08792       -2.26285        0.68527
N          1.14006       -0.58348        0.03672
C          1.69879        0.08434       -1.18879
H          2.37372       -0.64602       -1.64510
H          0.86867        0.28055       -1.86725
C          2.41830        1.37006       -0.81250
H          2.81528        1.80974       -1.73167
H          1.68769        2.07768       -0.40024
C          3.52804        1.11113        0.20392
H          4.30133        0.48112       -0.25288
H          4.00030        2.05251        0.49776
C          2.95306        0.40208        1.42825
H          2.25156        1.06377        1.95134
H          3.73984        0.13244        2.13829
C          2.22959       -0.87446        1.03270
H          1.75271       -1.35803        1.88660
H          2.89959       -1.58647        0.54198
H          0.49210        0.08531        0.47925
