24
id_1748_ca.log	Energy: -1951365.9644305
C          4.10990       -0.45553        1.26283
H          4.15166        0.63896        1.29658
H          5.13885       -0.82991        1.27333
H          3.60591       -0.80831        2.16856
C          3.39416       -0.94825       -0.00001
H          3.42043       -2.04310       -0.00003
C          4.10992       -0.45548       -1.26283
H          3.60594       -0.80822       -2.16857
H          5.13886       -0.82987       -1.27333
H          4.15168        0.63901       -1.29653
C          1.92956       -0.54172       -0.00001
C          0.98038       -1.53493       -0.00001
H          1.34275       -2.55932       -0.00002
C         -0.42592       -1.41184       -0.00000
H         -0.95117       -2.36306       -0.00000
C         -1.22947       -0.30248       -0.00000
C         -0.90893        1.11294       -0.00001
O         -1.79734        1.97750       -0.00002
C          0.49651        1.56430        0.00001
C          1.66735        0.85459        0.00000
H          2.55488        1.48691        0.00001
O          0.53699        2.91812        0.00002
H          1.45770        3.23360        0.00003
Br        -3.09358       -0.63461        0.00000
