19
id_1423_ca.log	Energy: -1949276.0226581
C         -0.41276        2.57579       -0.05469
H         -0.54340        3.64440       -0.19471
C          0.84854        2.05738        0.23556
H          1.70664        2.71805        0.32225
C          1.01104        0.68566        0.41942
C         -0.08389       -0.17490        0.31112
H          0.04331       -1.24497        0.44873
C         -1.33211        0.36357        0.02719
C         -1.51553        1.73129       -0.15887
H         -2.49914        2.13346       -0.37875
Br        -2.82309       -0.79449       -0.11342
C          2.37783        0.10302        0.71113
C          2.89269       -0.62862       -0.52658
O          3.09481       -1.82304       -0.58139
O          3.09879        0.21092       -1.54317
H          3.42377       -0.28609       -2.31996
O          2.27269       -0.78656        1.79988
H          3.14968       -1.16447        1.98217
H          3.08230        0.91710        0.92167
