24
id_1414_cb.log	Energy: -587511.2043147
C         -3.00725        1.27854        0.12382
H         -3.64717        2.15024        0.22682
C         -2.50685        0.92000       -1.13136
H         -2.75966        1.51155       -2.00688
C         -1.68059       -0.19271       -1.26228
H         -1.28198       -0.46289       -2.23809
C         -1.34534       -0.96875       -0.14494
C         -1.85939       -0.60965        1.10417
H         -1.60948       -1.20969        1.97663
C         -2.68392        0.51002        1.24041
H         -3.07035        0.77953        2.21938
C         -0.41624       -2.14344       -0.28158
H         -0.67939       -2.75304       -1.15127
H         -0.45943       -2.78150        0.60562
S          1.32594       -1.65037       -0.57178
C          1.70937       -0.82397        1.01455
H          0.76604       -0.50323        1.46475
H          2.18742       -1.54180        1.68600
C          2.61067        0.38323        0.78588
H          2.90004        0.78849        1.76447
H          3.53020        0.09423        0.26796
C          1.91596        1.50713        0.01063
O          2.55828        2.05804       -0.92988
O          0.75300        1.83841        0.37704
