17
id_1859_cb.log	Energy: -241275.7690122
C         -1.01877        1.81780       -0.38004
H         -0.48343        1.74668       -1.33163
H         -0.75717        2.77365        0.08791
H         -2.09088        1.83097       -0.60119
C         -0.66733        0.66548        0.55443
C          0.83283        0.66060        0.93919
H          1.06807        1.63253        1.39152
H          1.00409       -0.11039        1.69854
C          1.73572        0.41398       -0.23602
H          1.81088        1.21107       -0.97653
C          2.41227       -0.71998       -0.43282
H          3.03796       -0.86643       -1.30970
H          2.36140       -1.53968        0.28273
C         -1.02518       -0.71918       -0.00641
O         -1.26258       -0.84130       -1.24090
O         -1.02959       -1.67981        0.82087
H         -1.23082        0.77841        1.48863
