40
id_1554_cb.log	Energy: -888045.7371554
C          0.12424        3.30836       -0.41039
H          1.09572        3.67120       -0.06020
H         -0.61347        4.10563       -0.28249
H          0.19517        3.07462       -1.47522
C         -0.30640        2.10438        0.40544
H         -1.21551        1.65928       -0.01700
C         -0.51688        2.43136        1.86919
H         -0.77214        1.53111        2.43657
H         -1.33308        3.15199        1.96997
H          0.39288        2.86968        2.29187
O          0.72111        1.06606        0.39205
P          1.21232        0.32174       -0.93264
O          1.94778        1.17182       -1.90755
O          2.03734       -0.89415       -0.32245
C          2.68657       -0.85955        0.99353
H          2.87822        0.18518        1.25098
C          1.75325       -1.49718        2.00192
H          1.55372       -2.53706        1.72254
H          0.80507       -0.95467        2.06021
H          2.22084       -1.48750        2.99099
C          3.99220       -1.60911        0.83554
H          4.52562       -1.61843        1.79015
H          4.62598       -1.13098        0.08438
H          3.79940       -2.64317        0.53340
S         -0.40444       -0.56654       -1.87152
C         -0.98683       -1.73019       -0.57263
H         -1.53281       -2.49758       -1.12656
H         -0.10703       -2.20980       -0.13643
C         -1.83460       -1.11198        0.52804
H         -1.25014       -0.34732        1.04938
H         -2.03071       -1.91593        1.26435
N         -3.08284       -0.50674        0.07725
C         -4.01457       -1.53190       -0.38130
H         -3.62662       -2.04490       -1.26471
H         -4.96300       -1.06381       -0.65810
H         -4.21585       -2.28640        0.39966
C         -3.68008        0.21230        1.19757
H         -3.00302        1.00274        1.53602
H         -3.89496       -0.45100        2.05401
H         -4.61936        0.67425        0.88155
