21
id_1897_ca.log	Energy: -229992.3439153
C          3.18731       -0.00010        0.82523
H          2.91125       -0.88588        1.40629
H          2.91125        0.88554        1.40651
H          4.27336       -0.00008        0.69509
C          2.47585        0.00008       -0.53127
H          2.77831       -0.88271       -1.10382
H          2.77830        0.88301       -1.10360
C          0.97733        0.00005       -0.36236
C          0.27370        1.20334       -0.25115
H          0.80868        2.14558       -0.33177
C         -1.10133        1.21415       -0.03909
H         -1.65004        2.14742        0.04706
C         -1.76220       -0.00001        0.06362
C         -1.10128       -1.21415       -0.03916
H         -1.64996       -2.14744        0.04693
C          0.27375       -1.20327       -0.25122
H          0.80875       -2.14549       -0.33190
N         -3.21888       -0.00005        0.26320
H         -3.52684       -0.82953        0.78674
H         -3.52687        0.82940        0.78678
H         -3.72277       -0.00003       -0.63443
