15
id_1449_ca.log	Energy: -1898319.6392069
C          2.78494       -1.85119       -0.00001
H          2.27191       -2.81143        0.00002
H          3.40874       -1.76076        0.89036
H          3.40868       -1.76079       -0.89043
N          1.77544       -0.78898        0.00001
C          0.45700       -1.08334        0.00003
H          0.20063       -2.13746        0.00002
C         -0.47852       -0.09393        0.00004
C          0.01540        1.23801        0.00004
N          1.29190        1.53025        0.00001
C          2.22353        0.53385       -0.00001
O          3.44026        0.75828       -0.00002
O         -0.87892        2.22289       -0.00001
H         -0.41186        3.08068       -0.00004
Br        -2.31012       -0.46025       -0.00001
