26
id_1237_ca.log	Energy: -349027.6443680
C          3.38072        1.14661       -0.74227
H          3.50397        1.71126       -1.66481
H          4.35091        0.89636       -0.31421
H          2.78273        1.71582       -0.03289
N          2.67312       -0.12364       -1.06384
H          1.71969        0.09309       -1.38356
C          2.59074       -1.09621        0.07491
H          2.14331       -2.00389       -0.33392
H          3.61685       -1.30662        0.38027
C          1.76025       -0.54434        1.22813
H          1.71114       -1.34214        1.97676
H          2.27201        0.30170        1.69603
C          0.37036       -0.13720        0.79537
C         -0.02347        1.19975        0.80307
H          0.66559        1.96274        1.15458
C         -1.30205        1.56961        0.37696
H         -1.61538        2.60990        0.38640
C         -2.18965        0.60123       -0.06420
C         -1.80143       -0.74792       -0.08181
C         -0.53248       -1.10895        0.34112
H         -0.25853       -2.16091        0.32379
O         -2.67396       -1.71032       -0.51304
H         -3.51505       -1.27834       -0.74341
O         -3.46389        0.85380       -0.50097
H         -3.65227        1.80380       -0.42398
H          3.14794       -0.58064       -1.84990
