24
id_1196_ca.log	Energy: -254654.0284806
C          1.07041        2.56999       -0.00165
H          1.70514        2.69165        0.88205
H          0.33746        3.37980       -0.00708
H          1.71198        2.68573       -0.88118
C          0.37810        1.23051        0.00022
C         -1.01847        1.19324       -0.00553
H         -1.59264        2.11583       -0.01085
C         -1.66410       -0.02923       -0.00862
C         -0.97503       -1.22881       -0.00557
H         -1.51311       -2.17300       -0.01119
C          0.41940       -1.20659        0.00017
C          1.10192        0.02496        0.00373
C          2.60837        0.01409        0.00549
H          3.03112        1.01861        0.02067
H          2.99345       -0.50193       -0.88155
H          2.99136       -0.52802        0.87753
C          1.18620       -2.50140       -0.00169
H          1.83001       -2.57927        0.88145
H          1.83857       -2.57186       -0.87915
H          0.50737       -3.35693       -0.00839
N         -3.13487       -0.05606        0.00807
H         -3.50237       -0.88671       -0.47362
H         -3.53278        0.77205       -0.45370
H         -3.50228       -0.07410        0.96915
