33
id_1595_ca.log	Energy: -328623.7118567
C         -4.32136       -1.32281       -0.52053
H         -3.75713       -1.85095       -1.29695
H         -4.86944       -0.50698       -1.00448
H         -5.05525       -2.02053       -0.10584
C         -3.38777       -0.78444        0.55866
H         -2.86415       -1.61750        1.04512
H         -3.97364       -0.28624        1.34158
C         -2.35753        0.19722        0.00473
H         -2.87541        1.04411       -0.46766
H         -1.78437       -0.30086       -0.78965
C         -1.41089        0.71778        1.08474
H         -0.81666       -0.11483        1.48288
H         -2.00106        1.10823        1.92223
C         -0.47621        1.83086        0.61126
H          0.16902        2.14887        1.43979
H         -1.06452        2.70322        0.30015
C          0.40725        1.40911       -0.56237
C          1.26741        0.19971       -0.28364
C          2.19466        0.20825        0.76348
H          2.32050        1.09939        1.37476
C          2.96139       -0.92241        1.02853
H          3.68149       -0.90712        1.84057
C          2.80049       -2.07348        0.25705
H          3.39582       -2.95622        0.46844
C          1.87582       -2.08777       -0.78405
H          1.74762       -2.98034       -1.38824
C          1.11403       -0.95230       -1.05556
H          0.39554       -0.95743       -1.87129
N          1.29052        2.57819       -0.91941
H          1.89185        2.35861       -1.72210
H          1.89592        2.84057       -0.13159
H         -0.19630        1.23053       -1.45451
H          0.72285        3.39973       -1.16106
