30
id_1627_cb.log	Energy: -475359.0775504
C         -3.61353       -0.84289        1.59838
H         -3.54160        0.09667        2.15443
H         -2.84856       -1.52944        1.98205
H         -4.59636       -1.27961        1.80294
C         -3.42121       -0.63222        0.09644
H         -4.15948        0.10110       -0.25263
C         -3.62693       -1.93785       -0.66034
H         -4.62338       -2.34483       -0.46526
H         -2.88901       -2.68256       -0.33782
H         -3.51624       -1.78957       -1.73833
N         -2.09891       -0.08782       -0.25217
H         -1.39742       -0.77081        0.04365
C         -1.79282        1.18795        0.39248
H         -2.65780        1.84809        0.26236
H         -1.58451        1.11216        1.46842
C         -0.59207        1.82051       -0.32345
C          0.68378        1.04604       -0.02928
C          1.28660        1.15262        1.22702
H          0.86016        1.81845        1.97245
C          2.43184        0.42363        1.53693
H          2.91592        0.49933        2.50470
C          2.96981       -0.41672        0.57783
C          2.37658       -0.52699       -0.67133
C          1.23915        0.19508       -0.98591
H          0.80521        0.09648       -1.97516
F          2.93406       -1.35047       -1.57277
F          4.07508       -1.13505        0.83056
O         -0.86962        1.88482       -1.71027
H         -1.37925        1.06824       -1.88451
H         -0.46789        2.84712        0.03732
