15
id_1966_cb.log	Energy: -319162.8087505
C         -2.18762        1.66877        0.00000
H         -2.84568        2.53186        0.00000
C         -0.81965        1.81340       -0.00000
H         -0.34887        2.79300       -0.00000
C          0.00000        0.66024       -0.00000
C         -0.65981       -0.59298        0.00000
N         -2.00387       -0.72997        0.00000
C         -2.73717        0.37070        0.00000
H         -3.81567        0.23760        0.00000
N          0.07643       -1.75906        0.00000
C          1.36496       -1.62810       -0.00000
H          1.97345       -2.53126       -0.00000
C          2.07605       -0.34277       -0.00000
N          1.35890        0.78476       -0.00000
O          3.34949       -0.34961       -0.00000
