26
id_1396_cb.log	Energy: -312982.6372121
C         -1.70420       -1.11802       -0.54780
H         -1.22409       -1.99539       -0.97091
C         -2.95520       -0.72191       -1.00293
H         -3.45275       -1.29042       -1.78442
N         -3.61925        0.34289       -0.53281
C         -3.01525        1.04603        0.43124
H         -3.55764        1.90900        0.80908
C         -1.76456        0.73032        0.95344
H         -1.32973        1.34417        1.73706
C         -1.08159       -0.37952        0.45994
C          0.28478       -0.75699        0.97616
H          0.31030       -1.83345        1.17801
H          0.46662       -0.23476        1.93281
N          1.33807       -0.45030        0.01354
C          1.48966        0.99493       -0.19439
H          0.67164        1.39470       -0.79970
H          1.48089        1.52269        0.77722
C          2.86440        1.13118       -0.85950
H          2.76649        1.12976       -1.94790
H          3.35136        2.06535       -0.57164
C          3.64344       -0.11995       -0.37942
H          4.56328        0.13404        0.15167
H          3.91266       -0.75392       -1.22793
C          2.65163       -0.84260        0.53639
H          2.76966       -0.48995        1.57703
H          2.76090       -1.93080        0.53571
