12
id_1920_ca.log	Energy: -215534.7065620
C         -2.05860        0.31073        0.53678
H         -2.97040        0.77312        0.15667
H         -1.43158        1.07620        1.00798
H         -2.31528       -0.45711        1.27630
O         -1.39872       -0.28071       -0.57772
C         -0.18820       -0.89585       -0.22362
H         -0.28144       -1.47978        0.70180
H          0.09787       -1.57782       -1.03082
C          0.93267        0.11078       -0.06035
O          0.85135        1.29381       -0.31845
O          2.05022       -0.47329        0.38603
H          2.76287        0.19290        0.45242
