22
id_1695_ca.log	Energy: -206831.0572100
C         -2.47857       -0.80675       -0.01730
H         -2.67459       -0.69720        1.04994
H         -2.49952       -1.85780       -0.30373
H         -3.20269       -0.23722       -0.59892
N         -1.12031       -0.26706       -0.29342
C         -1.03044        1.19506        0.04269
H         -1.82896        1.69391       -0.50868
H         -1.23134        1.26764        1.11568
C          0.34178        1.74108       -0.31557
H          0.48365        1.67730       -1.40059
H          0.36563        2.79863       -0.03999
C          1.45154        0.96575        0.40486
H          1.35938        1.14281        1.48501
H          2.43699        1.31499        0.08685
C          1.30101       -0.50676        0.13063
C          2.26336       -1.28949       -0.35175
H          2.09202       -2.34447       -0.54831
H          3.25729       -0.89809       -0.55154
C         -0.06481       -1.05906        0.43187
H         -0.31224       -0.96624        1.49513
H         -0.16969       -2.09971        0.12126
H         -0.93699       -0.36410       -1.30076
