34
id_1017_cb.log	Energy: -875046.5354896
C         -2.84795       -1.42863        1.88634
H         -2.57952       -2.48518        1.98464
H         -3.93834       -1.34694        1.85720
H         -2.48474       -0.91120        2.77975
C         -2.22908       -0.79638        0.64313
C         -0.73357       -1.00123        0.64557
H         -0.41467       -2.03458        0.79070
C          0.22433       -0.08017        0.42606
C         -0.08151        1.36274        0.31241
C         -0.77414        2.15077        1.19126
H         -1.16150        1.77187        2.13131
C         -0.91864        3.49983        0.74628
H         -1.43179        4.27188        1.30752
C         -0.33025        3.71573       -0.46429
H         -0.28190        4.63560       -1.03234
S          0.41483        2.28619       -1.07698
C          1.64287       -0.45781        0.29084
C          2.75060        0.31188        0.53622
H          2.68651        1.33846        0.87976
C          3.97845       -0.38037        0.31611
H          4.95732        0.05971        0.46645
C          3.78807       -1.66274       -0.10541
H          4.53443       -2.40695       -0.35035
S          2.11224       -2.04665       -0.24468
N         -2.86204       -1.29532       -0.59962
C         -2.58423       -2.70383       -0.86801
H         -3.18362       -3.02521       -1.72501
H         -2.86510       -3.32270       -0.01264
H         -1.52718       -2.90129       -1.11064
C         -2.43131       -0.50020       -1.74410
H         -2.99347       -0.80862       -2.63077
H         -1.35707       -0.61153       -1.96965
H         -2.63316        0.55976       -1.55917
H         -2.44686        0.27405        0.66261
