30
id_1699_ca.log	Energy: -256919.1358843
C         -1.66158       -0.46285        1.43688
H         -2.69061       -0.13477        1.61914
H         -1.01634        0.10344        2.11273
H         -1.58615       -1.51929        1.71500
C         -1.31790       -0.28560       -0.04911
C          0.00028       -0.97099       -0.46518
H          0.00035       -1.02449       -1.56262
H          0.00032       -2.00414       -0.09549
C          1.31804       -0.28532       -0.04870
C          1.24797        1.19714       -0.41624
H          2.09527        1.75621       -0.01332
H          1.20894        1.33291       -1.50058
N         -0.00066        1.83963        0.11461
H         -0.00113        1.81785        1.14158
C         -1.24839        1.19654       -0.41785
H         -1.20792        1.33173       -1.50222
H         -2.09646        1.75543       -0.01628
C          2.45954       -0.89594       -0.86934
H          2.56041       -1.96046       -0.63250
H          3.41111       -0.40469       -0.63864
H          2.27087       -0.79945       -1.94355
C          1.66139       -0.46531        1.43687
H          1.00671        0.08749        2.11467
H          1.59986       -1.52436        1.70849
H          2.68563       -0.12455        1.62291
C         -2.45871       -0.89835       -0.86906
H         -2.55976       -1.96223       -0.62933
H         -2.26916       -0.80487       -1.94337
H         -3.41047       -0.40653       -0.64043
H         -0.00072        2.83142       -0.14808
