12
id_1876_ca.log	Energy: -480631.3418524
C          2.44991       -1.06422       -0.00001
H          2.82578       -1.60000        0.87909
H          2.85206       -0.05046        0.00004
H          2.82577       -1.59991       -0.87917
C          0.96279       -1.09991       -0.00000
H          0.49695       -2.08261       -0.00000
C          0.12734       -0.05543        0.00000
C         -1.35202       -0.19397       -0.00000
O         -2.12736        0.74229       -0.00002
O         -1.75514       -1.47045        0.00002
H         -2.73197       -1.48709        0.00000
Cl         0.68608        1.59568        0.00001
