17
id_1326_cb.log	Energy: -576736.2021611
C         -2.54383       -1.38682        0.01612
H         -3.24081       -2.21817        0.06260
C         -2.96063       -0.10176        0.35942
H         -3.98298        0.08180        0.67555
C         -2.05856        0.95932        0.29817
H         -2.36414        1.96666        0.56353
C         -0.75104        0.71249       -0.10725
C         -0.29851       -0.56302       -0.46181
C         -1.22799       -1.60609       -0.38849
H         -0.90266       -2.60843       -0.65577
C          1.12203       -0.80969       -0.88307
H          1.40735       -0.15052       -1.70871
H          1.21739       -1.83998       -1.24564
C          2.15752       -0.64577        0.24550
O          1.78068       -0.82580        1.43522
O          3.34044       -0.38258       -0.11102
Cl         0.36841        2.06375       -0.16216
