16
id_1777_cb.log	Energy: -597061.0551454
C          0.72229       -1.40615       -0.00560
H          1.35520       -2.28342       -0.00862
C         -0.66180       -1.51061       -0.00785
H         -1.13707       -2.48514       -0.01348
C         -1.44842       -0.36562       -0.00080
C         -0.90006        0.93112        0.00177
C          0.49735        1.02869        0.00142
H          0.96883        2.00453        0.00050
C          1.26125       -0.12607        0.00098
N          2.71867        0.01570        0.00086
O          3.19289        1.14040        0.01036
O          3.39563       -1.00010       -0.00834
N         -1.68695        2.06051        0.07064
H         -2.61082        1.97816       -0.33887
H         -1.21546        2.91049       -0.21864
Cl        -3.18321       -0.53463        0.00723
