21
id_1900_ca.log	Energy: -182940.3735337
C          2.67912        0.35546       -0.19663
H          2.72130        0.32965       -1.28985
H          3.64911        0.03432        0.18993
H          2.50597        1.38461        0.12815
C          1.60985       -0.58322        0.32471
H          1.49873       -0.52186        1.40980
H          1.81404       -1.61902        0.04588
N          0.26976       -0.25121       -0.24910
C         -0.24627        1.12155        0.11762
H          0.16743        1.35988        1.09877
H          0.13045        1.83203       -0.61656
C         -1.78038        0.99010        0.14464
H         -2.14237        1.18392        1.15613
H         -2.25331        1.70513       -0.52930
C         -2.07516       -0.46508       -0.26195
H         -2.21465       -0.54693       -1.34385
H         -2.95858       -0.87129        0.23221
C         -0.81563       -1.20735        0.14739
H         -0.64477       -2.16154       -0.35083
H         -0.74242       -1.32888        1.23140
H          0.35152       -0.29021       -1.27283
