19
id_1006_ca.log	Energy: -520533.6645850
C          0.00118        2.74805       -0.03194
H          0.00238        3.83173       -0.04903
C          1.20225        2.05054       -0.02204
H          2.15272        2.57106       -0.02408
C          1.17894        0.66077        0.00922
C         -0.00072       -0.08443        0.01236
C         -1.17822        0.66341       -0.00951
C         -1.20159        2.05277       -0.02144
H         -2.15168        2.57411       -0.03861
N         -2.47380       -0.03052       -0.04705
O         -3.46615        0.59941        0.26885
O         -2.48440       -1.19738       -0.40272
C         -0.01825       -1.59686        0.10272
O         -0.23009       -2.17873        1.14079
O          0.21206       -2.16743       -1.07139
H          0.19439       -3.14103       -0.97005
N          2.47529       -0.03179        0.05801
O          3.47554        0.61193       -0.20017
O          2.47932       -1.21344        0.36073
