20
id_1856_ca.log	Energy: -359727.0358499
C         -2.15797       -1.03662        1.18189
H         -1.93409       -1.90521        1.81549
H         -3.22481       -1.03616        0.94908
H         -1.88124       -0.13840        1.73702
C         -1.35153       -1.19693       -0.07350
O         -1.77727       -1.79882       -1.04854
C          0.08585       -0.74494       -0.04880
C          1.06630       -1.73617       -0.02216
H          0.77007       -2.78125       -0.04405
C          2.41512       -1.38721        0.04820
H          3.17064       -2.16670        0.07333
C          2.79212       -0.04573        0.08421
H          3.84160        0.22627        0.13431
C          1.81981        0.95020        0.04488
H          2.10854        1.99586        0.04970
C          0.46731        0.60558       -0.02189
C         -0.58299        1.64846       -0.13712
O         -1.73986        1.40580       -0.43647
O         -0.14442        2.88685        0.10609
H         -0.88252        3.51504       -0.01781
