17
id_1359_cb.log	Energy: -295085.4775909
C          0.57940        2.57728       -0.25964
H          0.61149        3.62548       -0.54258
C          1.74218        1.92916        0.15384
H          2.68304        2.47278        0.19137
C          1.71385        0.58092        0.52163
C          0.49658       -0.10923        0.47275
H          0.46357       -1.15777        0.75685
C         -0.65797        0.54809        0.05797
C         -0.63459        1.89074       -0.31222
H         -1.53971        2.39596       -0.63281
I         -2.49154       -0.51677       -0.00833
C          2.97218       -0.13716        0.92304
H          2.75721       -0.89755        1.68237
H          3.68706        0.56309        1.36888
C          3.70370       -0.85557       -0.22738
O          4.77499       -1.44711        0.09166
O          3.21212       -0.82268       -1.38694
