30
id_1720_cb.log	Energy: -562254.7370754
C          4.77830       -1.79151        0.11665
H          5.76278       -2.24887        0.15385
C          4.49634       -0.67226        0.90182
H          5.25826       -0.25978        1.55685
C          3.23408       -0.08451        0.85589
H          3.01009        0.77890        1.47587
C          2.24149       -0.60845        0.01883
C          2.52557       -1.73869       -0.75751
H          1.75683       -2.15208       -1.40453
C          3.78975       -2.32406       -0.71167
H          4.00223       -3.19585       -1.32366
C          0.89159       -0.01881       -0.02021
C          0.49029        1.28691       -0.06843
O         -0.88322        1.28312       -0.03985
C         -1.24610       -0.01157        0.00781
N         -0.23476       -0.83094        0.02073
C         -2.67349       -0.33308        0.03966
C         -3.63376        0.68444       -0.01617
H         -3.32288        1.72252       -0.08276
C         -4.98809        0.36079        0.01254
H         -5.72990        1.15246       -0.03203
C         -5.39000       -0.97274        0.09715
H         -6.44683       -1.22171        0.11972
C         -4.43173       -1.98689        0.15353
H         -4.74030       -3.02578        0.22059
C         -3.07686       -1.67161        0.12476
H         -2.33036       -2.45845        0.16969
C          1.15873        2.62323       -0.19783
O          2.38468        2.61863       -0.47704
O          0.42689        3.63302       -0.02557
