52
id_1045_cb.log	Energy: -429962.8162867
C         -0.88853        1.98961        1.52159
H         -1.59308        1.29508        1.99160
H         -1.12555        2.99882        1.87885
H          0.11415        1.73628        1.88354
C         -0.96801        1.92033       -0.00143
H         -2.00784        2.07254       -0.31901
H         -0.69257        0.91192       -0.33777
C         -0.08315        2.95438       -0.70415
H         -0.47269        3.95925       -0.49498
H         -0.16248        2.80770       -1.78909
C          1.39425        2.90326       -0.30330
H          1.51156        3.23585        0.73674
H          1.95163        3.62173       -0.91822
C          2.02869        1.52085       -0.45310
H          1.80942        1.12003       -1.45507
H          1.56105        0.83553        0.26893
C          3.54118        1.55027       -0.22973
H          3.73750        1.91995        0.78635
H          3.98418        2.28345       -0.91613
C          4.25739        0.20752       -0.41138
H          5.32404        0.35840       -0.21268
H          4.17882       -0.12256       -1.45542
C          3.73308       -0.90597        0.49667
H          3.42553       -0.46149        1.46130
H          4.53462       -1.61678        0.72961
N          2.63662       -1.65797       -0.12061
H          1.99089       -0.97861       -0.51881
C          1.89583       -2.42278        0.88135
H          2.55553       -3.21177        1.26249
H          1.62560       -1.79459        1.75052
C          0.62481       -3.03653        0.30862
H          0.87828       -3.67556       -0.54700
H          0.17917       -3.68732        1.07126
C         -0.40830       -1.99142       -0.11481
H         -0.60043       -1.32056        0.73536
H         -0.00576       -1.36220       -0.92228
C         -1.71437       -2.61807       -0.60377
H         -1.48363       -3.29714       -1.43477
H         -2.14120       -3.23970        0.19581
C         -2.75441       -1.59257       -1.06038
H         -2.29537       -0.91973       -1.79964
H         -3.57361       -2.10832       -1.57818
C         -3.34117       -0.75923        0.07743
H         -3.82331       -1.42675        0.80584
H         -2.53656       -0.24415        0.61767
C         -4.35189        0.27920       -0.40398
H         -3.88788        0.89645       -1.18483
H         -5.20074       -0.23101       -0.87742
C         -4.84837        1.17438        0.72697
H         -4.01522        1.72429        1.18124
H         -5.32251        0.58049        1.51630
H         -5.58008        1.90692        0.37249
