35
id_1645_ca.log	Energy: -625651.8254580
C         -3.95970        0.34538       -1.48745
H         -3.32223        0.36817       -2.37762
H         -4.13503        1.37060       -1.14804
H         -4.92036       -0.09636       -1.76194
C         -3.32139       -0.49720       -0.39724
H         -3.94832       -0.50913        0.49768
C         -3.00712       -1.90917       -0.85884
H         -2.24666       -1.89319       -1.64762
H         -3.91861       -2.34874       -1.27128
H         -2.66458       -2.54902       -0.04278
N         -2.04653        0.19801        0.03050
H         -1.42086        0.26567       -0.78549
C         -1.31635       -0.45679        1.15834
H         -2.03484       -0.61400        1.96498
H         -0.96716       -1.42139        0.79011
C         -0.13800        0.38223        1.66990
C          0.77065        0.84317        0.53626
C          0.71314        2.16241        0.08604
H          0.04804        2.86705        0.57571
C          1.50549        2.60462       -0.97027
H          1.44238        3.63609       -1.30051
C          2.37582        1.71473       -1.58829
H          3.00237        2.04067       -2.41261
C          2.45524        0.39462       -1.15233
H          3.14550       -0.27959       -1.64559
C          1.66045       -0.05328       -0.09299
S          1.74902       -1.72751        0.50671
C          3.16867       -2.40650       -0.38575
H          4.06639       -1.81276       -0.20304
H          2.97085       -2.48243       -1.45622
H          3.31412       -3.40953        0.02031
O         -0.56183        1.43268        2.51577
H         -1.15671        2.03623        2.04390
H          0.42834       -0.28736        2.32738
H         -2.28797        1.16630        0.28123
