20
id_1007_ca.log	Energy: -159044.4285500
C          2.17155        0.03690        0.02228
H          3.02688        0.68116        0.24267
H          2.22864       -0.22107       -1.04104
H          2.28893       -0.88201        0.60303
C          0.87756        0.76592        0.37479
H          0.83532        1.73052       -0.14635
H          0.86212        0.98749        1.44736
C         -0.41980        0.00887        0.07442
C         -0.45341       -1.38753        0.67882
H         -0.31526       -1.30980        1.76076
H          0.33851       -2.02335        0.27254
H         -1.41906       -1.86499        0.48507
C         -1.63047        0.82718        0.50213
H         -1.61541        1.81932        0.03954
H         -1.61155        0.95054        1.58793
H         -2.56087        0.31987        0.22764
N         -0.52383       -0.15737       -1.42963
H          0.24721       -0.72192       -1.80520
H         -0.50905        0.75585       -1.90085
H         -1.40214       -0.62801       -1.68030
