22
id_1023_cb.log	Energy: -183404.7708482
C         -1.71455       -1.40216       -0.02776
H         -1.03029       -2.10342       -0.51666
H         -2.31563       -0.92160       -0.80656
H         -2.39443       -1.98799        0.59836
C         -0.96197       -0.37785        0.81688
H         -0.37199       -0.90430        1.57937
H         -1.67768        0.24946        1.36225
C         -0.02542        0.55686        0.03608
C         -0.82587        1.48980       -0.87090
H         -1.56634        2.05054       -0.29082
H         -1.34579        0.93653       -1.65877
H         -0.15642        2.21002       -1.35659
C          0.97514       -0.23246       -0.83253
H          0.43185       -0.73468       -1.64304
H          1.63803        0.49950       -1.31410
C          1.81593       -1.25861       -0.07772
H          2.35656       -0.79978        0.75747
H          2.56036       -1.71020       -0.74041
H          1.19864       -2.06792        0.32633
N          0.65061        1.40622        1.03666
H          1.33092        1.98494        0.54048
H          1.20831        0.80200        1.64176
