17
id_1463_cb.log	Energy: -309231.9232351
C          0.95374        2.71785       -0.00001
H          2.02212        2.94567       -0.00000
H          0.49450        3.17601        0.88267
H          0.49451        3.17600       -0.88269
C          0.71066        1.23755        0.00000
C          1.73856        0.33059        0.00001
H          2.77555        0.64980        0.00000
C          1.43069       -1.07183        0.00002
N          0.11649       -1.44010        0.00000
C         -0.78253       -0.46188       -0.00001
N         -0.59664        0.84828       -0.00000
O         -2.06068       -0.93117       -0.00000
C         -3.12361        0.01951       -0.00000
H         -3.08624        0.64761        0.89327
H         -4.03893       -0.57269        0.00000
H         -3.08624        0.64760       -0.89328
O          2.33827       -1.96357        0.00000
