20
id_1175_cb.log	Energy: -549242.8340782
C         -2.22589       -0.26609        1.55306
H         -2.03936        0.69984        2.02599
H         -1.64437       -1.05612        2.03166
H         -3.29210       -0.50534        1.56889
S         -1.74017       -0.16344       -0.15135
O         -1.89452       -1.49586       -0.75738
O         -2.45816        0.96256       -0.77009
C         -0.01030        0.23715       -0.09767
C          0.36018        1.57717       -0.04877
H         -0.38301        2.36583       -0.08390
C          1.72280        1.86062        0.03228
H          2.05610        2.89287        0.06421
C          2.66323        0.83946        0.06608
H          3.72189        1.07626        0.12727
C          2.27264       -0.50957        0.01793
C          0.90522       -0.80766       -0.06570
H          0.57338       -1.84076       -0.11424
N          3.21256       -1.52424        0.11079
H          2.91621       -2.40628       -0.29276
H          4.14018       -1.26165       -0.20438
