18
id_1987_cb.log	Energy: -241886.6802496
C         -0.81247        2.87101        0.00000
H         -1.44469        2.74005        0.88524
H         -1.44469        2.74005       -0.88524
H         -0.44793        3.90309        0.00000
C          0.36231        1.89839        0.00000
H          1.00140        2.10311        0.87068
H          1.00140        2.10311       -0.87068
C          0.00000        0.43082        0.00000
C         -1.31809       -0.02192        0.00000
H         -2.12835        0.70435        0.00000
C         -1.63915       -1.38640        0.00000
H         -2.67684       -1.70736        0.00000
C         -0.59940       -2.31666        0.00000
H         -0.82064       -3.38220        0.00000
C          0.72808       -1.89228        0.00000
H          1.53639       -2.62161        0.00000
C          1.07784       -0.51620        0.00000
O          2.32866       -0.12288        0.00000
