10
id_1996_cb.log	Energy: -271551.3086447
C         -0.87767        0.75833       -0.13247
H         -0.87540        1.23109       -1.12226
H         -0.87481        1.54890        0.62062
C          0.42650        0.02211        0.00071
F          1.46910        0.82018       -0.28531
F          0.62748       -0.45995        1.23669
F          0.48913       -1.02779       -0.83984
N         -1.98114       -0.15985        0.11396
H         -2.11597       -0.72765       -0.72080
H         -2.83021        0.39196        0.21136
