40
id_1219_ca.log	Energy: -448900.5329577
C          2.99639       -1.57629        0.39840
H          3.37453       -2.57575        0.59101
C          2.46811       -0.81428        1.43867
H          2.43476       -1.21671        2.44669
C          1.99050        0.47177        1.18950
H          1.59038        1.07002        2.00683
C          2.02256        1.01093       -0.10050
C          2.54623        0.23212       -1.13834
H          2.57646        0.64130       -2.14580
C          3.03443       -1.04923       -0.89253
H          3.44539       -1.63682       -1.70827
C          1.46207        2.38347       -0.38486
H          1.61582        3.03744        0.48201
H          2.00886        2.83741       -1.21700
C         -0.02548        2.33620       -0.77309
H         -0.13497        1.67179       -1.63685
H         -0.36365        3.33162       -1.08852
C         -0.95951        1.82796        0.31738
H         -0.58305        0.89598        0.74784
C         -2.40065        1.63752       -0.14385
H         -3.02216        1.41090        0.73164
H         -2.77107        2.57362       -0.57884
C         -2.54935        0.49460       -1.16109
H         -2.05530        0.75762       -2.10142
H         -3.61607        0.38113       -1.38049
C         -1.98918       -0.80669       -0.63569
C         -2.64052       -1.48564        0.40036
H         -3.57724       -1.09177        0.78888
C         -2.10652       -2.65631        0.93239
H         -2.62733       -3.17234        1.73351
C         -0.90794       -3.16790        0.43479
H         -0.49151       -4.08189        0.84701
C         -0.25129       -2.50167       -0.59746
H          0.67951       -2.89486       -0.99495
C         -0.78733       -1.32655       -1.12499
H         -0.27044       -0.80968       -1.93098
N         -0.96154        2.80884        1.46073
H         -0.03192        2.89622        1.88796
H         -1.61250        2.51056        2.19691
H         -1.25278        3.74233        1.14326
