32
id_1046_ca.log	Energy: -257664.0287548
C          5.25875       -1.11644        0.14471
H          6.27958       -0.85484       -0.15032
H          5.00164       -2.06460       -0.34025
H          5.25506       -1.28537        1.22719
C          4.26517       -0.02395       -0.23789
H          4.30180        0.14625       -1.32168
H          4.55649        0.92298        0.23462
C          2.83324       -0.36607        0.16726
H          2.79416       -0.53147        1.25323
H          2.54221       -1.31702       -0.30081
C          1.82614        0.71498       -0.21645
H          1.85975        0.87233       -1.30378
H          2.12283        1.66811        0.24306
C          0.39565        0.37894        0.19936
H          0.35334        0.25092        1.29061
H          0.11559       -0.58836       -0.23823
C         -0.60647        1.45218       -0.22328
H         -0.63375        1.50862       -1.32004
H         -0.25154        2.42870        0.13006
C         -2.02320        1.22511        0.30535
H         -2.66502        2.05530       -0.01461
H         -2.01206        1.23929        1.40305
C         -2.64097       -0.09016       -0.16951
H         -2.09522       -0.94309        0.25073
H         -2.57256       -0.16211       -1.26293
C         -4.09610       -0.17826        0.24852
H         -4.69892        0.60646       -0.21027
H         -4.21265       -0.13071        1.33211
N         -4.68869       -1.48300       -0.18815
H         -4.19514       -2.27274        0.24367
H         -4.61868       -1.59373       -1.20628
H         -5.67924       -1.55198        0.06951
