25
id_1313_ca.log	Energy: -278566.4583319
C         -2.83822        0.40187        0.14448
H         -3.85537        0.74876        0.29899
C         -2.58959       -0.94749       -0.11173
H         -3.40847       -1.65770       -0.16411
C         -1.28214       -1.37324       -0.30472
H         -1.07323       -2.42125       -0.51153
C         -0.21638       -0.46770       -0.24117
C         -0.45933        0.88944        0.00977
C         -1.78282        1.30396        0.20093
H         -1.97807        2.35507        0.39871
C          0.65698        1.91111        0.03627
H          0.65917        2.44141       -0.92561
H          0.44065        2.66183        0.80291
C          2.03184        1.28768        0.26024
H          2.13371        0.97111        1.30605
H          2.81293        2.03160        0.08209
C          2.22475        0.10185       -0.68297
H          3.23099       -0.32272       -0.60297
H          2.09525        0.43679       -1.71816
C          1.19156       -0.98878       -0.43211
N          1.58224       -1.76522        0.80836
H          0.93237       -2.54115        0.98145
H          1.57645       -1.16693        1.64339
H          1.21304       -1.73148       -1.23233
H          2.52500       -2.16100        0.70869
