16
id_1472_ca.log	Energy: -217525.0518833
C         -2.88630       -0.01919        0.00141
H         -3.28548        0.53108       -0.85747
H         -3.28188        0.45761        0.90504
H         -3.27454       -1.04073       -0.03950
C         -1.37852       -0.01341       -0.00132
C         -0.64300       -1.20094       -0.00109
H         -1.16652       -2.15420       -0.00197
C          0.75363       -1.19486       -0.00012
H          1.31458       -2.12641       -0.00036
C          1.43282        0.02070        0.00045
C          0.72232        1.22220       -0.00010
H          1.26568        2.16290       -0.00033
C         -0.66868        1.19535       -0.00109
H         -1.21662        2.13533       -0.00202
O          2.80812        0.09673        0.00087
H          3.18625       -0.79850        0.00076
