24
id_1685_cb.log	Energy: -231196.5740736
C          1.91425        1.75509       -0.01945
H          1.61025        2.76002       -0.32827
H          2.89425        1.54738       -0.45918
H          2.02488        1.75332        1.07063
C          0.87842        0.73040       -0.46295
C         -0.49772        1.07945        0.12029
H         -0.77793        2.09217       -0.18977
H         -0.41970        1.08371        1.22597
N         -1.54429        0.15581       -0.31765
C         -1.21920       -1.19791        0.13269
H         -1.16006       -1.23375        1.23743
H         -2.02675       -1.87042       -0.17363
C          0.11095       -1.66871       -0.45447
H          0.34374       -2.67330       -0.08837
H          0.00906       -1.72176       -1.54637
C          1.20895       -0.69984       -0.09561
C          2.31972       -1.08015        0.53665
H          3.10202       -0.37966        0.81407
H          2.48456       -2.12388        0.79369
C         -2.81408        0.56290        0.26987
H         -3.60799       -0.11754       -0.05080
H         -3.07108        1.57347       -0.06000
H         -2.78284        0.55904        1.37357
H          0.77990        0.77314       -1.55753
