43
id_1033_ca.log	Energy: -426004.5276017
C          3.72255        0.87002       -0.52551
H          4.45989        1.59195       -0.16164
H          2.75292        1.13994       -0.09009
H          3.64079        0.99015       -1.61217
C          4.12546       -0.55820       -0.16428
H          4.14844       -0.66729        0.92682
H          5.14816       -0.74588       -0.51090
C          3.20317       -1.61856       -0.77535
H          3.51412       -2.61253       -0.43018
H          3.32560       -1.60915       -1.86560
C          1.72124       -1.41499       -0.45141
H          1.12886       -2.20712       -0.92797
H          1.39488       -0.46699       -0.90070
C          1.43653       -1.41283        1.05103
H          1.95670       -0.58447        1.54264
H          1.83256       -2.33195        1.49917
C         -0.04652       -1.38450        1.39031
H         -0.22368       -1.26587        2.46184
H         -0.53701       -2.29978        1.04816
N         -0.78400       -0.25836        0.71597
C         -0.32565        1.09748        1.14932
H         -0.75274        1.29458        2.13546
H          0.76365        1.06567        1.22172
C         -0.72298        2.15366        0.11675
C         -0.02919        3.46297        0.44076
H         -0.33772        4.23508       -0.26791
H          1.05640        3.33657        0.37378
H         -0.28176        3.79272        1.45245
O         -0.31307        1.72210       -1.17826
H         -1.06040        1.23348       -1.57311
C         -2.27347       -0.44087        0.83035
H         -2.47178       -1.06703        1.70146
H         -2.73367        0.53717        0.98492
C         -2.80429       -1.06474       -0.44576
C         -4.30386       -1.27993       -0.36739
H         -4.67030       -1.68521       -1.31446
H         -4.81106       -0.33023       -0.17190
H         -4.55032       -1.98608        0.43052
O         -2.46179       -0.14482       -1.48756
H         -2.56013       -0.59958       -2.33976
H         -1.80882        2.30203        0.12244
H         -2.28990       -2.01886       -0.62306
H         -0.56472       -0.30815       -0.29005
