24
id_1960_cb.log	Energy: -277767.0858078
C         -2.84082       -0.04177       -0.52429
H         -3.14958        0.76142       -1.19970
H         -3.67743       -0.27904        0.13850
H         -2.60602       -0.92888       -1.12283
C         -1.62500        0.38069        0.27226
C         -0.43883        0.71957       -0.62567
H         -0.66096        1.63026       -1.19750
H         -0.30713       -0.09077       -1.35001
N          0.78819        0.88147        0.17354
C          1.21105        2.27941        0.18477
H          2.05157        2.41082        0.87202
H          0.38599        2.90858        0.53069
H          1.51853        2.63278       -0.81327
C          1.87330        0.01250       -0.28996
H          1.98649        0.06012       -1.38657
H          2.80802        0.37922        0.14909
C          1.72408       -1.43906        0.14872
H          1.65744       -1.47504        1.24525
H          2.62790       -1.98080       -0.14766
O          0.62729       -2.13021       -0.43571
H         -0.17736       -1.81961        0.02484
O         -1.26271       -0.70668        1.13244
H         -0.44774       -0.40536        1.57746
H         -1.86638        1.25308        0.89608
