16
id_1525_cb.log	Energy: -309065.0579001
C          1.33870       -1.74396        0.00000
H          1.89118       -2.68096        0.00000
C         -0.02229       -1.74537       -0.00000
H         -0.58796       -2.67389       -0.00000
C         -0.74245       -0.51040       -0.00000
C          0.00000        0.71280        0.00000
C         -0.79760        1.87990       -0.00000
H         -0.34219        2.86654        0.00000
C         -2.16302        1.73675       -0.00000
H         -2.82163        2.59904       -0.00000
N         -2.80221        0.53772       -0.00000
N         -2.09157       -0.55988       -0.00000
C          1.40572        0.69600        0.00000
H          1.95067        1.63753        0.00000
C          2.12500       -0.51494        0.00000
O          3.41275       -0.58222        0.00000
