20
id_1815_cb.log	Energy: -380518.0329437
C         -3.89400        0.49974       -0.00187
H         -3.72499        1.10501       -0.89755
H         -3.72549        1.10520        0.89378
H         -4.91354        0.11672       -0.00214
O         -3.04808       -0.64669       -0.00146
C         -1.71391       -0.44513        0.00029
C         -0.92983       -1.62751        0.00171
H         -1.42466       -2.59135        0.00174
C          0.42997       -1.51388        0.00175
H          1.05691       -2.39650        0.00151
C          1.05674       -0.24834        0.00229
C          0.28659        0.94749        0.00191
C         -1.12402        0.80239       -0.00029
H         -1.71817        1.70847       -0.00214
N          0.79509        2.19313        0.01961
H          1.78843        2.34545       -0.06226
H          0.16026        2.97624       -0.05746
N          2.47539       -0.22616       -0.00100
O          3.09545       -1.29034       -0.00468
O          3.06997        0.85871        0.00109
