17
id_1932_ca.log	Energy: -251651.4548324
C          1.53900        0.71863        0.82197
H          0.97078        0.49530        1.73178
H          2.39212        1.34618        1.08657
C          0.63441        1.34993       -0.23805
H          1.23799        1.77611       -1.04511
H         -0.02439        2.12670        0.15362
C         -0.17161        0.15681       -0.76627
N          0.75324       -1.02435       -0.59551
H          0.22395       -1.71375       -0.03674
H          0.99331       -1.45455       -1.49217
C          1.98708       -0.56866        0.14684
H          2.30421       -1.36342        0.82059
H          2.76049       -0.38156       -0.59906
C         -1.45894       -0.10760        0.04326
O         -1.53887       -1.20319        0.65999
O         -2.32066        0.80272        0.00543
H         -0.43453        0.24850       -1.82076
