20
id_158_cb.log	Energy: -229709.9993693
C          2.93357       -0.62952        0.73430
H          2.93862        0.23978        1.39992
H          3.97043       -0.93098        0.55741
H          2.42316       -1.44779        1.25266
C          2.22430       -0.29796       -0.58207
H          2.24899       -1.17427       -1.23888
H          2.76298        0.50725       -1.09309
C          0.79263        0.12221       -0.34931
C          0.46929        1.46732       -0.14381
H          1.24800        2.22346       -0.19908
C         -0.84880        1.82829        0.13001
H         -1.10157        2.87270        0.29027
C         -1.85150        0.86726        0.20173
H         -2.87872        1.15254        0.41316
C         -1.54257       -0.48511       -0.00345
C         -0.21449       -0.84017       -0.27524
H          0.03042       -1.88931       -0.43354
N         -2.55007       -1.45254       -0.00398
H         -2.21690       -2.37980        0.23861
H         -3.34951       -1.19971        0.56746
