29
id_1834_ca.log	Energy: -374153.7714938
C         -0.71374        2.58083       -0.04461
H          0.14605        3.23984       -0.12052
H         -1.69334        3.04738       -0.00181
C         -0.57492        1.24864       -0.00861
C         -1.76393        0.35293        0.03221
C         -2.92250        0.67425       -0.68642
H         -2.93013        1.55931       -1.31621
C         -4.05012       -0.13918       -0.61762
H         -4.93727        0.12233       -1.18625
C         -4.03674       -1.29039        0.16789
H         -4.91461       -1.92698        0.21836
C         -2.88655       -1.62465        0.88112
H         -2.86745       -2.51924        1.49598
C         -1.75800       -0.81303        0.81001
H         -0.86719       -1.07933        1.37229
C          0.77986        0.62957       -0.01753
C          1.02052       -0.55191       -0.73058
H          0.20832       -1.03806       -1.26154
C          2.29297       -1.11068       -0.77911
H          2.48183       -2.02267       -1.33744
C          3.32025       -0.47933       -0.09637
C          3.12001        0.68428        0.63064
H          3.94261        1.14580        1.16836
C          1.84322        1.23171        0.66811
H          1.66589        2.12826        1.25325
N          4.67049       -1.05726       -0.14958
H          5.13611       -1.01149        0.76648
H          4.64479       -2.04441       -0.43646
H          5.26901       -0.55818       -0.82214
