11
id_115_ca.log	Energy: -119049.8596225
N          0.70333        1.14492       -0.00228
H          1.71697        1.18698        0.02993
C          0.05714       -0.00000       -0.01288
C         -1.43305       -0.00001        0.00168
H         -1.81795       -0.89328       -0.49119
H         -1.81795        0.89325       -0.49122
H         -1.76510        0.00001        1.04423
N          0.70334       -1.14492       -0.00228
H          1.71698       -1.18696        0.02993
H          0.18790       -2.01710       -0.01131
H          0.18788        2.01710       -0.01132
