47
id_1436_cb.log	Energy: -568998.1728081
C         -1.50811       -3.33029       -0.66734
H         -2.49187       -3.67017       -0.32785
H         -0.80923       -4.16593       -0.56264
H         -1.57904       -3.08497       -1.73259
C         -1.01720       -2.12732        0.14650
C          0.33921       -1.65164       -0.38672
H          0.25194       -1.37491       -1.44489
H          1.01213       -2.51701       -0.35905
C          0.97952       -0.51091        0.42421
H          0.75881       -0.69266        1.48378
C          2.49748       -0.48105        0.28730
C          3.13916       -0.80813       -0.91146
H          2.55425       -1.13293       -1.76805
C          4.52679       -0.72723       -1.02074
H          5.00807       -0.98749       -1.95889
C          5.29491       -0.31787        0.06728
H          6.37561       -0.25861       -0.01759
C          4.66495        0.01227        1.26645
H          5.25358        0.32927        2.12227
C          3.27850       -0.06719        1.37101
H          2.78923        0.19323        2.30716
C          0.44715        0.87915        0.09268
C          0.04877        1.74436        1.11582
H          0.07168        1.39371        2.14525
C         -0.38702        3.03828        0.83416
H         -0.69611        3.69129        1.64514
C         -0.42870        3.49055       -0.48362
H         -0.77037        4.49643       -0.70765
C         -0.02308        2.64037       -1.51203
H         -0.04409        2.98414       -2.54205
C          0.41923        1.35041       -1.22402
H          0.74765        0.70457       -2.03570
N         -1.97930       -1.02400        0.23948
C         -2.46466       -0.53348       -1.04592
H         -3.11548       -1.27066       -1.54945
H         -1.62306       -0.31489       -1.70956
C         -3.26340        0.73852       -0.81752
H         -2.61299        1.50858       -0.37419
H         -3.67464        1.11586       -1.75721
O         -4.36986        0.49132        0.04305
C         -3.92608       -0.03020        1.28941
H         -3.30126        0.71889        1.79918
H         -4.82033       -0.21751        1.88891
C         -3.12549       -1.30913        1.09461
H         -2.77379       -1.66844        2.06785
H         -3.79031       -2.08022        0.66498
H         -0.85808       -2.45894        1.18174
