26
id_1277_ca.log	Energy: -349520.2518244
C         -3.59554       -0.03332       -0.00524
H         -4.67542       -0.14340       -0.01160
C         -3.03080        1.24343        0.01336
H         -3.67452        2.11717        0.02317
C         -1.64733        1.41223        0.02012
H         -1.23750        2.41707        0.04052
C         -0.83320        0.27785        0.00553
C         -1.40533       -1.00892       -0.00615
C         -2.78387       -1.16854       -0.01297
H         -3.22315       -2.16191       -0.02371
C         -0.33350       -2.06875       -0.00619
H         -0.39276       -2.71397       -0.89041
H         -0.40335       -2.72277        0.87072
C          0.93675       -1.25735        0.00338
C          0.63113        0.11613        0.00389
C          1.68691        1.02218       -0.00260
C          3.00655        0.59667        0.00157
H          3.80909        1.32815       -0.00170
C          3.28694       -0.76906        0.00907
H          4.31999       -1.09889        0.01338
C          2.25127       -1.70262        0.00731
H          2.47035       -2.76607        0.00834
N          1.41823        2.46640       -0.02004
H          0.86621        2.74433       -0.84404
H          2.29536        3.00422       -0.04584
H          0.89810        2.77172        0.81489
