14
id_1873_ca.log	Energy: -481399.1669366
C         -0.36969        1.95306        0.86160
H         -0.53184        3.03438        0.87705
H          0.59507        1.75486        1.34318
H         -1.15506        1.48611        1.46455
C         -0.39018        1.44321       -0.57479
H          0.41419        1.90787       -1.15496
H         -1.33275        1.69936       -1.06747
C         -0.20174       -0.07236       -0.69417
C          1.06241       -0.51937        0.02069
O          1.12703       -1.21829        1.00735
O          2.13379        0.00050       -0.58708
H          2.94141       -0.27187       -0.10745
Cl        -1.61789       -0.96085       -0.03842
H         -0.11826       -0.36122       -1.74391
