15
id_1112_ca.log	Energy: -3407548.3304191
C          0.00000        2.54178        0.00037
H          0.00000        3.62596        0.00018
C          1.20815        1.85467        0.00041
H          2.14960        2.39165        0.00071
C          1.20279        0.46617       -0.00056
C         -0.00000       -0.23782       -0.00608
C         -1.20279        0.46617       -0.00056
C         -1.20815        1.85467        0.00041
H         -2.14960        2.39165        0.00071
Br        -2.85064       -0.45599        0.00038
N         -0.00000       -1.69956        0.00158
H         -0.82338       -2.08871       -0.48151
H          0.82338       -2.08871       -0.48151
Br         2.85064       -0.45599        0.00038
H         -0.00000       -2.08961        0.95943
