23
id_1308_ca.log	Energy: -405327.3881427
C          3.75658        0.36708       -0.00001
H          4.77197        0.74984       -0.00001
C          3.54257       -1.03327        0.00000
H          4.39607       -1.70310        0.00001
C          2.26845       -1.54235        0.00001
H          2.08959       -2.61324        0.00002
C          1.15498       -0.66314        0.00001
C         -0.17148       -1.15302        0.00001
H         -0.35462       -2.22181        0.00001
C         -1.23124       -0.28548        0.00001
C         -1.02038        1.12303        0.00000
C          0.25029        1.61513        0.00000
H          0.41867        2.68927       -0.00000
C          1.37110        0.74232       -0.00000
C          2.69619        1.24043       -0.00001
H          2.85423        2.31453       -0.00002
N         -2.13107        2.07601       -0.00000
H         -2.73728        1.95802       -0.82331
H         -1.77337        3.04094        0.00000
N         -2.57220       -0.85539       -0.00000
O         -2.69143       -2.06570       -0.00003
O         -3.52200       -0.08195        0.00001
H         -2.73729        1.95802        0.82330
