21
id_1021_cb.log	Energy: -544918.5822473
C          2.76794        0.00002        0.22091
H          3.09209       -0.88406        0.77080
H          3.09207        0.88411        0.77081
H          3.26501        0.00003       -0.75345
C          1.27173        0.00001        0.05576
C          0.49646       -1.16669        0.02352
C         -0.89168       -1.19540       -0.01308
H         -1.41434       -2.14567       -0.03454
C         -1.60178       -0.00002       -0.03961
C         -0.89170        1.19538       -0.01308
H         -1.41440        2.14563       -0.03452
C          0.49644        1.16670        0.02352
N          1.15916        2.47697        0.01269
O          0.63562        3.38434        0.63939
O          2.18093        2.60096       -0.64211
C         -3.12587       -0.00002       -0.09502
O         -3.69025       -1.12360       -0.11443
O         -3.69026        1.12355       -0.11442
N          1.15921       -2.47695        0.01269
O          2.18098       -2.60092       -0.64210
O          0.63568       -3.38433        0.63938
