20
id_1022_cb.log	Energy: -205927.5583009
C         -0.00054       -0.20775        0.26177
H         -0.01062       -0.24929        1.36053
H          0.01086        0.85389       -0.01232
C         -1.26586       -0.86790       -0.28092
H         -1.25055       -1.93829       -0.03502
H         -1.27231       -0.79706       -1.37807
C         -2.55486       -0.25418        0.26373
H         -2.57006       -0.35318        1.35519
H         -3.41151       -0.82208       -0.11353
N         -2.77404        1.16002       -0.06101
H         -2.67796        1.26305       -1.07204
H         -1.99998        1.69778        0.32760
C          1.27459       -0.87141       -0.25392
H          1.29001       -0.84370       -1.35149
H          1.28683       -1.92849        0.03875
C          2.54101       -0.21837        0.26791
H          3.42271       -0.77714       -0.07268
H          2.54103       -0.22978        1.36704
O          2.58964        1.12269       -0.21324
H          3.37660        1.54022        0.16769
