42
id_1613_ca.log	Energy: -519477.6063482
C          6.21921        0.56262        1.18190
H          6.37777        1.34372        1.93141
H          6.56549        0.94776        0.21662
H          6.85236       -0.29142        1.44594
C          4.75293        0.15013        1.10704
H          4.13386        1.02259        0.86960
H          4.41811       -0.21640        2.08594
C          4.51687       -0.93761        0.06131
H          5.13502       -1.81400        0.29078
H          4.82443       -0.57907       -0.92897
C          3.07493       -1.39828       -0.00629
H          2.73512       -1.76476        0.97142
H          2.94841       -2.20191       -0.74178
O          2.27980       -0.27490       -0.39001
C          0.93499       -0.45705       -0.46935
C          0.27446       -1.65556       -0.25416
H          0.83112       -2.55038       -0.00216
C         -1.12116       -1.72301       -0.36675
H         -1.60765       -2.68055       -0.21532
C         -1.85909       -0.59556       -0.68800
C         -1.19112        0.62272       -0.91254
H         -1.76035        1.50599       -1.18351
C          0.18813        0.69698       -0.80875
O          0.92583        1.82379       -1.01232
C          0.21602        3.00199       -1.36919
H         -0.32486        2.86361       -2.31122
H          0.96937        3.77989       -1.49027
H         -0.48699        3.29034       -0.58072
C         -3.37604       -0.63496       -0.80250
C         -4.05266        0.39660        0.10340
H         -5.13526        0.26582        0.07082
H         -3.80161        1.41577       -0.19382
N         -3.63760        0.25223        1.53227
H         -2.61830        0.36894        1.60194
C         -4.31035        1.22793        2.43531
H         -4.05715        2.23228        2.09901
H         -3.95319        1.06141        3.45003
H         -5.38480        1.06205        2.37428
O         -3.91939       -1.92580       -0.60023
H         -3.57923       -2.29676        0.23021
H         -3.66507       -0.35704       -1.82176
H         -3.84594       -0.69979        1.85750
