20
id_1145_cb.log	Energy: -229709.9715060
C          2.63450       -0.54795        0.72980
H          3.70043       -0.67042        0.51570
H          2.32176       -1.36208        1.39116
H          2.50606        0.39136        1.27871
C          1.80829       -0.56565       -0.56213
H          1.95479       -1.52616       -1.06645
H          2.17613        0.20901       -1.24584
C          0.33455       -0.36778       -0.30205
C         -0.52404       -1.46350       -0.21131
H         -0.10756       -2.45735       -0.36209
C         -1.88368       -1.31618        0.05862
H         -2.52887       -2.18665        0.11940
C         -2.39819       -0.03490        0.24494
H         -3.45397        0.10711        0.45671
C         -1.56146        1.07332        0.16563
H         -1.95986        2.07420        0.31372
C         -0.19453        0.92452       -0.10444
N          0.61408        2.05812       -0.25117
H          1.57602        1.92447        0.04104
H          0.22386        2.87835        0.20169
