19
id_1982_ca.log	Energy: -250143.9786047
C          2.50072       -1.37095       -0.00004
H          3.06392       -1.06095        0.88569
H          3.06390       -1.06090       -0.88576
H          2.39352       -2.45531       -0.00007
C          1.15953       -0.72423        0.00000
C         -0.04272       -1.38226        0.00011
H         -0.07587       -2.46384        0.00017
C         -1.22557       -0.61641        0.00015
N         -1.22043        0.71449        0.00013
C         -0.03636        1.33446        0.00001
N          1.12964        0.63583       -0.00005
N          0.01608        2.66031       -0.00002
H          0.89642        3.16146       -0.00015
H         -0.85218        3.18049       -0.00002
C         -2.56422       -1.27922       -0.00009
H         -2.47226       -2.36546        0.00287
H         -3.12679       -0.96457       -0.88430
H         -3.12984       -0.95972        0.88037
H          2.01389        1.14595       -0.00010
