21
id_1022_ca.log	Energy: -206221.8207496
C          0.06399       -0.21249        0.26446
H          0.04460       -0.26534        1.36132
H          0.07543        0.85117       -0.00319
C         -1.18379       -0.89248       -0.29721
H         -1.14777       -1.96457       -0.07330
H         -1.20809       -0.79776       -1.39030
C         -2.48760       -0.37177        0.27953
H         -2.49549       -0.40978        1.36981
H         -3.34687       -0.92095       -0.10474
N         -2.70871        1.06402       -0.09517
H         -2.69915        1.18221       -1.11516
H         -1.98208        1.67399        0.29500
C          1.34480       -0.86483       -0.25170
H          1.35980       -0.83703       -1.34889
H          1.36570       -1.92058        0.04371
C          2.60161       -0.19542        0.27195
H          3.48936       -0.74501       -0.06702
H          2.59979       -0.20558        1.37095
O          2.63363        1.14477       -0.21168
H          3.41588        1.57270        0.16761
H         -3.61327        1.40212        0.25162
