26
id_1088_cb.log	Energy: -279019.8701425
C          2.03312        0.60179       -1.20329
H          3.12848        0.58505       -1.18309
H          1.71516        1.64522       -1.22137
H          1.70547        0.13637       -2.13948
C          1.48641       -0.19054       -0.00098
C          2.09060       -1.59823       -0.10501
H          3.18212       -1.51375       -0.11427
H          1.78451       -2.10457       -1.02652
H          1.81363       -2.22822        0.74621
C          1.99804        0.40001        1.32733
H          1.64595        1.41507        1.53023
H          3.09343        0.42845        1.32228
H          1.67777       -0.22939        2.16442
C         -0.05199       -0.22594       -0.01264
C         -0.73444       -1.44951       -0.00741
H         -0.16397       -2.37082       -0.00821
C         -2.12392       -1.54976       -0.00188
H         -2.59765       -2.52615        0.00051
C         -2.88456       -0.38580        0.00256
H         -3.96968       -0.42933        0.01077
C         -2.24462        0.84501        0.00033
H         -2.82795        1.76283        0.00438
C         -0.84445        0.95165       -0.00947
N         -0.31166        2.24599       -0.08836
H          0.60198        2.36788        0.32713
H         -0.95276        2.94742        0.26832
