34
id_1658_cb.log	Energy: -422694.3417592
C          4.72994       -0.02809        0.86126
H          5.12101       -0.98637        1.21902
H          4.71140        0.65314        1.71844
H          5.43009        0.37165        0.12336
C          3.35340       -0.19283        0.27200
C          3.08435        0.14630       -1.05345
H          3.88395        0.54120       -1.67517
C          1.80359       -0.00718       -1.58929
H          1.61233        0.26880       -2.62364
C          0.76408       -0.50908       -0.81127
C          1.02910       -0.84985        0.52148
H          0.22182       -1.24330        1.13813
C          2.30241       -0.69446        1.05333
H          2.49297       -0.96622        2.08902
C         -0.63147       -0.68485       -1.36077
H         -0.90378       -1.74473       -1.31248
H         -0.66422       -0.39146       -2.42248
N         -1.61032        0.06583       -0.56937
C         -2.96158       -0.48918       -0.68207
H         -3.67582        0.28858       -0.39367
H         -3.19668       -0.79560       -1.71348
C         -3.11726       -1.65715        0.28117
H         -2.47683       -2.49799       -0.02041
H         -4.15243       -2.00929        0.28318
O         -2.79886       -1.23951        1.60152
H         -2.01670       -0.66870        1.49077
C         -1.56666        1.50582       -0.84399
H         -0.56171        1.76238       -1.19662
H         -2.28145        1.79518       -1.62852
C         -1.82253        2.27103        0.44304
H         -2.81269        2.01511        0.84748
H         -1.79934        3.34894        0.25999
O         -0.80603        1.97811        1.39359
H         -0.62473        1.02617        1.29301
