20
id_1857_ca.log	Energy: -359731.5362217
C          2.63169       -1.91631        0.00000
H          2.12471       -2.31936        0.88320
H          3.67611       -2.23001        0.00002
H          2.12473       -2.31936       -0.88321
C          2.56141       -0.41580       -0.00000
O          3.58016        0.26556       -0.00001
C          1.21860        0.24763        0.00000
C          1.14934        1.64739        0.00000
H          2.06904        2.22419        0.00000
C         -0.08253        2.29272        0.00000
H         -0.12908        3.37689        0.00001
C         -1.26019        1.54716        0.00000
H         -2.22223        2.04848        0.00000
C         -1.19617        0.15081       -0.00000
C          0.03982       -0.49891       -0.00000
H          0.06244       -1.58410       -0.00001
C         -2.42630       -0.68422       -0.00000
O         -2.42391       -1.90257        0.00000
O         -3.55654        0.03212       -0.00000
H         -4.31739       -0.58045        0.00000
