19
id_1832_cb.log	Energy: -520105.4887115
C         -2.34335       -1.27719       -0.00727
H         -3.21621       -1.92179       -0.01229
C         -1.07743       -1.81974        0.01124
H         -0.94483       -2.89478        0.01583
C          0.05366       -1.00151       -0.00311
C         -0.08623        0.40120       -0.01468
C         -1.35654        0.93939       -0.01919
H         -1.48782        2.01497       -0.00183
C         -2.51046        0.12093       -0.02954
N         -3.74144        0.68214       -0.01264
H         -3.83558        1.66674       -0.22584
H         -4.54644        0.09953       -0.20306
C          1.06942        1.38122        0.04907
F          1.74297        1.47003       -1.10342
F          0.62802        2.62056        0.31908
F          1.93819        1.07424        1.02073
N          1.33351       -1.66385       -0.04801
O          2.30787       -1.04173       -0.44923
O          1.39332       -2.83850        0.29986
