25
id_1223_ca.log	Energy: -301846.3685199
C         -2.54990        1.25046       -0.85810
H         -2.65923        2.16157       -0.26447
H         -3.34384        1.22961       -1.61010
H         -1.58222        1.28223       -1.36838
C         -2.64742        0.04378        0.05588
C         -1.61752        0.00617        1.19092
H         -1.81757        0.88116        1.81736
H         -1.81161       -0.88355        1.80082
C         -0.18008        0.01170        0.72833
C          0.49883        1.21432        0.49621
H         -0.01061        2.15749        0.67830
C          1.81325        1.22645        0.04735
H          2.33965        2.15960       -0.12642
C          2.47542        0.01828       -0.17975
C          1.82232       -1.19172        0.04778
H          2.34777       -2.12751       -0.12301
C          0.50513       -1.18541        0.50036
H          0.00593       -2.13349        0.69054
O          3.77079        0.07916       -0.61876
H          4.11049       -0.82401       -0.73311
N         -2.49405       -1.19660       -0.78475
H         -1.57391       -1.21443       -1.24444
H         -3.21042       -1.23493       -1.51908
H         -3.64745       -0.02683        0.48709
H         -2.57525       -2.04816       -0.21567
