29
id_1085_cb.log	Energy: -397315.7159175
C         -4.76599       -1.96253        0.28390
H         -4.59394       -2.47066       -0.67117
H         -5.74702       -1.47804        0.23130
H         -4.80868       -2.72514        1.06717
C         -3.66880       -0.93984        0.55978
H         -3.84587       -0.45415        1.52780
H         -2.70042       -1.44792        0.63587
C         -3.59772        0.13008       -0.52774
H         -4.56410        0.64268       -0.60656
H         -3.40278       -0.33582       -1.50173
C         -2.54465        1.18483       -0.26204
H         -2.53870        1.95999       -1.03348
H         -2.69174        1.66293        0.71172
O         -1.26234        0.52735       -0.26156
C         -0.19872        1.29906       -0.00514
O         -0.29709        2.49713        0.21090
C          1.07489        0.55595       -0.01361
C          2.26144        1.25489        0.24257
H          2.21529        2.32111        0.44152
C          3.48092        0.60359        0.24833
H          4.39741        1.15084        0.44968
C          3.54913       -0.77963       -0.00610
C          2.35523       -1.48151       -0.25985
H          2.40083       -2.54937       -0.45352
C          1.13939       -0.82151       -0.26339
H          0.22982       -1.37953       -0.45985
N          4.76451       -1.42264       -0.06142
H          5.52476       -0.96948        0.43212
H          4.73838       -2.42513        0.08404
