44
id_1352_cb.log	Energy: -972929.9503366
C          4.96254        1.69646       -0.23146
H          5.24169        1.96647        0.79272
H          4.34269        2.50525       -0.63665
H          5.87794        1.64439       -0.83005
C          4.20825        0.37195       -0.27184
C          3.84451       -0.02592       -1.70347
H          3.26881        0.79533       -2.15603
H          4.75161       -0.15324       -2.30572
C          2.99842       -1.29784       -1.71459
H          3.60170       -2.14613       -1.36876
H          2.65784       -1.52937       -2.72946
C          1.78814       -1.14102       -0.80045
H          1.20707       -2.07018       -0.77128
H          1.12563       -0.35650       -1.21330
N          2.20578       -0.81690        0.56636
C          2.93577        0.45464        0.57159
H          2.31610        1.27994        0.17039
H          3.19637        0.71359        1.60290
C          1.05082       -0.84857        1.49021
C          1.48679       -0.79168        2.95236
H          0.63128       -1.01665        3.59691
H          1.85902        0.19844        3.23278
H          2.27180       -1.52806        3.14775
C          0.05464        0.24894        1.20123
H          0.38389        1.25066        1.48149
C         -1.14048        0.13621        0.59051
C         -1.73288       -1.17689        0.25452
C         -1.94792       -2.24297        1.08534
H         -1.71919       -2.20938        2.14548
C         -2.50289       -3.37608        0.41679
H         -2.74671       -4.31063        0.90832
C         -2.70238       -3.15134       -0.91279
H         -3.11086       -3.82671       -1.65315
S         -2.22783       -1.55764       -1.37018
C         -1.93392        1.32286        0.22273
C         -3.29187        1.41681        0.05912
H         -3.95906        0.57327        0.19821
C         -3.72864        2.73062       -0.28519
H         -4.76566        3.00155       -0.44520
C         -2.69625        3.61466       -0.39137
H         -2.73545        4.66660       -0.64253
S         -1.17670        2.86130       -0.07750
H          4.84306       -0.41608        0.15633
H          0.57651       -1.81783        1.31770
