27
id_139_cb.log	Energy: -409506.6526720
C          5.55798       -0.19824        0.45138
H          5.91096       -1.22916        0.33271
H          6.06905        0.23520        1.31713
H          5.86617        0.36464       -0.43730
C          4.04162       -0.15845        0.62016
H          3.71570        0.87785        0.76839
H          3.75340       -0.71302        1.52308
C          3.31799       -0.75830       -0.58398
H          3.65957       -1.78960       -0.74040
H          3.56989       -0.19710       -1.49357
C          1.81134       -0.80191       -0.42794
H          1.53111       -1.34016        0.48727
H          1.34144       -1.29848       -1.28539
O          1.33402        0.54436       -0.34599
C         -0.01022        0.74032       -0.19499
C         -0.42911        2.07521       -0.12488
H          0.31400        2.86471       -0.19286
C         -1.77875        2.36601        0.02868
H         -2.09875        3.40266        0.08245
C         -2.72148        1.33826        0.11412
H         -3.77507        1.56669        0.23441
C         -2.30359        0.01009        0.04236
C         -0.94433       -0.29258       -0.11245
H         -0.64257       -1.33157       -0.16522
C         -3.31552       -1.12442        0.13171
O         -2.87774       -2.30422        0.03379
O         -4.52759       -0.81372        0.30023
