19
id_1788_ca.log	Energy: -1031939.3693420
C         -2.74694       -0.03904        1.26144
H         -2.49126       -1.05322        1.57340
H         -3.83309        0.07385        1.25770
H         -2.30890        0.69340        1.94122
S         -2.19444        0.27581       -0.44559
C         -0.44315        0.08149       -0.20676
C          0.15689       -1.18701       -0.13365
C          1.52666       -1.35702        0.02713
H          1.96628       -2.34761        0.07620
C          2.31271       -0.22191        0.10828
C          1.78880        1.05531        0.04842
H          2.42973        1.92781        0.11784
C          0.41310        1.18931       -0.10451
Cl        -0.21575        2.80804       -0.15653
N          3.75818       -0.37785        0.28701
H          4.27259        0.42435       -0.10172
H          4.10748       -1.22795       -0.17695
Cl        -0.80742       -2.62784       -0.24666
H          4.00631       -0.44876        1.28489
