18
id_1190_ca.log	Energy: -392106.5002008
C          0.25899        1.21318       -0.02376
H         -0.28490        2.15127       -0.03486
C          1.64909        1.21702       -0.01179
H          2.20589        2.14859       -0.01283
C          2.31304       -0.00000       -0.00707
C          1.64909       -1.21702       -0.01179
H          2.20589       -2.14859       -0.01283
C          0.25899       -1.21318       -0.02376
H         -0.28490       -2.15127       -0.03486
C         -0.42446        0.00000       -0.03044
C         -1.92554        0.00000        0.00090
F         -2.39611       -0.00001        1.25967
F         -2.43875        1.08083       -0.60375
F         -2.43875       -1.08082       -0.60377
N          3.78140       -0.00000        0.02378
H          4.17037       -0.83056       -0.44268
H          4.17037        0.83056       -0.44268
H          4.13470        0.00000        0.99135
