35
id_1640_ca.log	Energy: -422987.6146104
C          3.08662        1.64769       -0.55106
H          2.33131        1.90665       -1.30145
H          4.05704        2.00367       -0.90573
H          2.85779        2.16657        0.38220
C          3.16298        0.14197       -0.37279
H          3.79477       -0.11728        0.48041
C          3.63729       -0.57303       -1.62580
H          2.99235       -0.32761       -2.47612
H          3.64461       -1.65810       -1.48556
H          4.65410       -0.24866       -1.85862
N          1.79648       -0.40547       -0.02423
H          1.15566       -0.21244       -0.80749
C          1.19989        0.12172        1.24102
H          1.94720       -0.00248        2.02718
H          0.99464        1.17943        1.08450
C         -0.09212       -0.60968        1.62548
C         -1.08548       -0.64681        0.47456
C         -1.41169       -1.82716       -0.18478
H         -0.98034       -2.76597        0.14865
C         -2.30206       -1.83282       -1.25990
H         -2.54262       -2.76515       -1.75947
C         -2.87624       -0.63919       -1.67652
H         -3.57060       -0.62725       -2.51090
C         -2.57526        0.55880       -1.02701
H         -3.03855        1.48103       -1.35694
C         -1.68371        0.55360        0.04488
O         -1.33624        1.66970        0.74706
C         -1.92322        2.90402        0.35396
H         -3.01296        2.86640        0.44912
H         -1.65082        3.15578       -0.67592
H         -1.52144        3.65488        1.03353
O          0.16683       -1.88238        2.18657
H          0.48783       -2.49657        1.50699
H         -0.52060       -0.01906        2.44147
H          1.87850       -1.42877        0.03248
