31
id_1109_ca.log	Energy: -327858.6506234
C         -0.71708        0.72103       -1.86030
H         -0.92933       -0.32782       -2.05613
H          0.06592        1.08203       -2.52632
H         -1.61978        1.31562       -1.98783
N         -0.23817        0.89520       -0.45383
C          1.12911        0.38783       -0.21533
C          1.90380        1.06824        0.71744
H          1.50892        1.95106        1.21294
C          3.18548        0.60597        0.99742
H          3.79873        1.13492        1.71913
C          3.67621       -0.52644        0.34977
H          4.67654       -0.88542        0.56827
C          2.88569       -1.19369       -0.58200
H          3.26582       -2.07251       -1.09182
C          1.60054       -0.74003       -0.87496
H          0.99545       -1.25942       -1.60950
C         -1.20449        0.38044        0.61926
H         -0.73614        0.70781        1.54809
C         -2.60871        0.99156        0.45627
H         -2.95733        1.27352        1.45425
H         -2.61383        1.89854       -0.15483
C         -3.47623       -0.15206       -0.07989
H         -4.54019        0.00564        0.11240
H         -3.33929       -0.26583       -1.16187
C         -2.90128       -1.36810        0.65185
H         -3.20272       -2.32347        0.21592
H         -3.22878       -1.35413        1.69731
C         -1.38063       -1.15071        0.57398
H         -1.00461       -1.56519       -0.36635
H         -0.83028       -1.63705        1.38158
H         -0.19643        1.91113       -0.29943
