21
id_1324_ca.log	Energy: -182942.7968428
C         -1.62325        0.61777        0.09848
H         -2.54662        0.92287       -0.40500
H         -1.76138        0.82729        1.16678
C         -0.45892        1.47538       -0.40931
H         -0.76532        2.52492       -0.36907
H         -0.24973        1.25555       -1.46583
C          0.81063        1.30908        0.43739
H          0.52450        1.17310        1.48611
H          1.41519        2.22011        0.39757
C          1.74017        0.18186        0.00843
H          2.40627       -0.11060        0.82098
H          2.34220        0.46839       -0.85512
N          1.01167       -1.06633       -0.41332
H          0.68515       -0.94827       -1.37993
C         -0.16009       -1.48354        0.43580
H         -0.19400       -2.57216        0.39022
H          0.05969       -1.18341        1.46286
C         -1.45618       -0.88898       -0.09665
H         -1.53033       -1.14033       -1.16311
H         -2.27673       -1.41270        0.40360
H          1.69524       -1.82993       -0.44175
