31
id_1719_ca.log	Energy: -562535.6660547
C          4.45893       -2.19109        0.08369
H          5.36875       -2.78362        0.10677
C          3.34879       -2.64473       -0.63022
H          3.39201       -3.58809       -1.16598
C          2.18092       -1.88777       -0.66036
H          1.31692       -2.23594       -1.21915
C          2.12326       -0.66363        0.02076
C          3.23426       -0.21485        0.74582
H          3.17855        0.71839        1.29671
C          4.39754       -0.97902        0.77336
H          5.25498       -0.63074        1.34120
C          0.88114        0.10835       -0.00346
C          0.51818        1.42923       -0.04376
N         -0.86459        1.53233       -0.02629
C         -1.28811        0.30910        0.01123
O         -0.27916       -0.60204        0.02579
C         -2.66203       -0.18961        0.03984
C         -2.91754       -1.56590        0.06177
H         -2.09399       -2.27327        0.05733
C         -4.23228       -2.02447        0.08936
H         -4.42781       -3.09232        0.10614
C         -5.29219       -1.11736        0.09574
H         -6.31620       -1.47815        0.11776
C         -5.03560        0.25528        0.07421
H         -5.85831        0.96386        0.07957
C         -3.72535        0.72184        0.04644
H         -3.52305        1.78829        0.03048
C          1.38772        2.60512       -0.18018
O          2.59075        2.55796       -0.36517
O          0.70823        3.75494       -0.09855
H          1.33578        4.49550       -0.20888
