17
id_1765_cb.log	Energy: -1818497.6403437
C          0.39827        2.30491        0.00118
H          1.04313        2.37466        0.88338
H         -0.28434        3.15715        0.00041
H          1.04888        2.37786       -0.87652
C         -0.36802        1.01155       -0.00402
C         -1.76256        1.01415       -0.00683
H         -2.28615        1.96738       -0.00680
C         -2.51096       -0.17083       -0.00911
C         -1.82933       -1.39515       -0.00540
H         -2.39111       -2.32480       -0.00407
C         -0.44090       -1.42118       -0.00265
H          0.08428       -2.37053        0.00267
C          0.27482       -0.23014       -0.00300
Br         2.17664       -0.30634        0.00308
N         -3.90138       -0.12953       -0.07782
H         -4.30308        0.71884        0.30743
H         -4.35215       -0.95181        0.30948
