28
id_1224_ca.log	Energy: -326494.0739212
C          2.98488        0.97824        1.09299
H          3.21158        1.94102        0.62803
H          3.71764        0.79380        1.88373
H          1.98856        1.03517        1.54231
C          3.04815       -0.11183        0.04013
C          2.10169        0.08596       -1.14976
H          2.41562        1.00983       -1.64552
H          2.26080       -0.73543       -1.85741
C          0.64322        0.16531       -0.76833
C          0.04818        1.38984       -0.43210
H          0.63892        2.30147       -0.47786
C         -1.28168        1.45881       -0.04865
H         -1.74497        2.40649        0.20742
C         -2.05552        0.29317        0.00998
C         -1.48764       -0.93548       -0.32534
H         -2.06919       -1.84929       -0.29739
C         -0.14674       -0.98293       -0.71270
H          0.28502       -1.94333       -0.98817
O         -3.35344        0.45862        0.39956
C         -4.16007       -0.70852        0.47755
H         -3.75232       -1.42068        1.20270
H         -4.24860       -1.19224       -0.50083
H         -5.14271       -0.37307        0.80861
N          2.72781       -1.42544        0.70348
H          2.79167       -2.20668        0.03953
H          1.77275       -1.41787        1.08601
H          4.06736       -0.22250       -0.33391
H          3.37382       -1.61303        1.47938
