14
id_1094_cb.log	Energy: -468780.2114865
C          1.10491        1.20572       -0.00611
H          1.64653        2.14746       -0.00579
C         -0.28458        1.20907       -0.00227
H         -0.82809        2.14820        0.00284
C         -0.97126        0.00000       -0.00128
C         -0.28458       -1.20907       -0.00228
H         -0.82809       -2.14819        0.00284
C          1.10491       -1.20572       -0.00611
H          1.64653       -2.14746       -0.00579
C          1.82159        0.00000       -0.00917
N          3.21195       -0.00000       -0.07817
H          3.63939       -0.83597        0.30633
H          3.63939        0.83596        0.30634
Cl        -2.72619       -0.00000        0.00610
