17
id_1123_ca.log	Energy: -680639.2391339
C         -1.30348       -1.56968       -0.01533
H         -2.08934       -2.31606       -0.02177
C          0.03117       -1.94607       -0.04251
H          0.29891       -2.99623       -0.08023
C          1.03281       -0.97557       -0.02471
C          0.71569        0.39131        0.00872
C         -0.62751        0.76859        0.01657
H         -0.90008        1.81693        0.03890
C         -1.60429       -0.21363        0.01374
N         -3.00868        0.19861        0.04048
O         -3.86326       -0.67334        0.03852
O         -3.25966        1.39336        0.06373
C          1.75088        1.46807        0.07591
O          2.83455        1.35480        0.60844
O          1.33137        2.59857       -0.50042
H          2.01485        3.28854       -0.38669
Cl         2.67182       -1.53581       -0.10059
