25
id_1056_ca.log	Energy: -385134.0280658
C         -5.37606       -0.75987        0.00001
H         -5.29111       -1.39841        0.88609
H         -5.29112       -1.39841       -0.88608
H         -6.37540       -0.31539        0.00001
C         -4.30041        0.32284        0.00000
H         -4.40541        0.96224        0.88396
H         -4.40541        0.96223       -0.88396
C         -2.91713       -0.29434        0.00000
H         -2.76463       -0.91449       -0.89223
H         -2.76462       -0.91448        0.89224
O         -1.96083        0.77313       -0.00001
C         -0.64198        0.45996       -0.00000
C          0.24408        1.54944       -0.00000
H         -0.16201        2.55627       -0.00000
C          1.60863        1.32819        0.00000
H          2.29478        2.16963        0.00000
C          2.11477        0.01946       -0.00000
C          1.22752       -1.05959       -0.00000
H          1.60614       -2.07645       -0.00000
C         -0.14868       -0.85040       -0.00001
H         -0.81765       -1.70268       -0.00001
C          3.57827       -0.17490        0.00000
O          4.39608        0.73260        0.00001
O          3.95385       -1.46429       -0.00000
H          4.92955       -1.50619        0.00000
