18
id_1366_cb.log	Energy: -600626.1970398
C         -2.21874       -2.13529        0.11142
H         -2.44907       -3.19439        0.17299
C         -3.24374       -1.20091       -0.04265
H         -4.27855       -1.52243       -0.10846
C         -2.94071        0.15657       -0.10750
H         -3.72526        0.89648       -0.23034
C         -1.61285        0.56307       -0.01852
C         -0.55738       -0.34829        0.13159
C         -0.89840       -1.70963        0.20087
H         -0.10576       -2.43774        0.34721
C          0.84450        0.09337        0.23046
H          1.02541        1.07910        0.65410
C          1.89559       -0.63312       -0.16884
H          1.76583       -1.60739       -0.63572
C          3.31820       -0.15602       -0.03083
O          3.53878        0.95611        0.52590
O          4.20841       -0.92595       -0.49693
Cl        -1.27817        2.28039       -0.13339
