18
id_154_cb.log	Energy: -1948996.3781460
C          0.35020        2.60622        0.35795
H          0.37052        3.67327        0.55697
C          1.53547        1.89369        0.20103
H          2.49275        2.40095        0.27335
C          1.50934        0.51920       -0.03703
C          0.28564       -0.17053       -0.15401
C         -0.88449        0.57778        0.00360
C         -0.87015        1.94687        0.25866
H         -1.80082        2.49209        0.37672
Br        -2.59525       -0.24774       -0.11789
C          0.27212       -1.65917       -0.43059
H          1.03548       -1.89596       -1.18020
H         -0.69332       -1.96958       -0.82773
O          0.49711       -2.41844        0.75250
H          1.42662       -2.21156        0.98944
C          2.84602       -0.20312       -0.13392
O          2.95790       -1.31177        0.46654
O          3.76216        0.36969       -0.77610
