30
id_1690_cb.log	Energy: -303811.9691536
C         -2.33436       -1.25464       -0.94300
H         -2.14046       -1.07233       -2.00413
H         -3.32502       -0.86004       -0.69418
H         -2.34968       -2.33855       -0.77616
C         -1.25684       -0.59710       -0.07731
C         -1.26686        0.91717       -0.32411
H         -2.18279        1.35031        0.09809
H         -1.27492        1.10582       -1.40596
C         -0.04096        1.61459        0.25327
H         -0.03826        1.52310        1.34825
C          1.22121        0.99121       -0.31999
H          1.22310        1.17904       -1.40221
H          2.10823        1.47536        0.10521
C          1.29366       -0.52125       -0.07276
N          0.03630       -1.13112       -0.54925
H          0.06575       -2.12555       -0.31727
C          2.41179       -1.11429       -0.93349
H          2.21151       -0.94469       -1.99557
H          2.49118       -2.19509       -0.76534
H          3.37607       -0.66089       -0.68130
C          1.63777       -0.81859        1.39845
H          2.67903       -0.54361        1.60078
H          1.52755       -1.89066        1.59972
H          1.01207       -0.27268        2.10714
O         -0.02570        2.99895       -0.09745
H         -0.82635        3.39798        0.27869
C         -1.58922       -0.91495        1.39232
H         -2.64577       -0.70187        1.59006
H         -1.41693       -1.97876        1.59398
H         -1.00004       -0.33362        2.10407
