23
id_1749_cb.log	Energy: -3564534.7321583
C          2.46038        3.04798       -0.89219
H          1.95039        3.84091       -0.33574
H          1.98101        2.94803       -1.87178
H          3.49219        3.37804       -1.05204
C          2.48818        1.71713       -0.13563
H          3.20804        1.08404       -0.65421
C          2.98636        1.93505        1.29965
H          2.29009        2.58378        1.84441
H          3.96798        2.42162        1.28764
H          3.07715        0.99087        1.84598
C          1.15090        0.97164       -0.09781
C          0.01898        1.79955       -0.04793
H          0.21364        2.86531       -0.04374
C         -1.32703        1.47905        0.00157
H         -1.99052        2.33920        0.03801
C         -1.96137        0.24631       -0.00013
C         -1.43971       -1.07567       -0.02579
O         -2.18959       -2.07767       -0.02730
C          0.05423       -1.38937       -0.03985
C          1.12838       -0.42464       -0.07263
Br         2.82238       -1.32891       -0.06214
O          0.30679       -2.61199       -0.02527
Br        -3.86476        0.33529        0.04575
