18
id_1136_cb.log	Energy: -1948992.8373736
C         -0.41010        2.80180       -0.04238
H         -0.38381        3.88564       -0.09991
C         -1.62695        2.12956        0.06653
H         -2.55688        2.69171        0.09738
C         -1.67077        0.73745        0.13747
C         -0.47620       -0.00334        0.08142
C          0.72750        0.69000       -0.01165
C          0.77865        2.08100       -0.07443
H          1.73283        2.59259       -0.14805
Br         2.37176       -0.26258       -0.02096
C         -0.51802       -1.52638        0.12105
O         -0.76341       -2.05215        1.23996
O         -0.31677       -2.13036       -0.96082
C         -3.00489        0.04587        0.31745
H         -3.80569        0.79179        0.26249
H         -3.05175       -0.42992        1.30133
O         -3.23345       -1.00011       -0.62150
H         -3.23266       -0.61619       -1.51349
