29
id_1604_cb.log	Energy: -365926.6799805
C          3.87943       -1.22182       -0.37209
H          4.61252       -1.06591        0.42795
H          3.82583       -0.29803       -0.95806
H          4.26227       -2.00827       -1.02969
C          2.51767       -1.60054        0.20475
H          2.58403       -2.58888        0.67436
H          1.78919       -1.69820       -0.61023
C          2.00088       -0.60225        1.24508
H          2.66285       -0.62811        2.12001
H          1.01177       -0.92546        1.59328
C          1.91637        0.84325        0.75051
H          2.91953        1.22900        0.53455
H          1.50663        1.47422        1.55164
C          1.05940        1.04150       -0.50269
C         -0.35002        0.50645       -0.30927
C         -1.19330        1.06209        0.66138
H         -0.83761        1.88319        1.28000
C         -2.48603        0.58569        0.85035
H         -3.14908        1.00709        1.59850
C         -2.92700       -0.45943        0.05081
C         -2.12894       -1.03651       -0.92135
H         -2.51680       -1.84920       -1.52630
C         -0.83584       -0.54236       -1.09255
H         -0.19577       -0.97998       -1.85473
F         -4.17987       -0.92583        0.22758
N          1.10664        2.46327       -0.87688
H          0.69666        2.99783       -0.10918
H          0.47289        2.60463       -1.66352
H          1.51164        0.47923       -1.32829
