21
id_1292_ca.log	Energy: -565435.4433375
C         -2.44426        1.86383       -0.00000
H         -3.09727        2.72934       -0.00000
C         -1.08328        2.01652        0.00000
H         -0.63511        3.00555        0.00000
C         -0.22545        0.88312        0.00000
C          1.18470        1.03602        0.00000
H          1.61048        2.03440       -0.00000
C          1.98248       -0.07584        0.00000
C          1.44457       -1.38253        0.00000
H          2.10842       -2.23997        0.00000
C          0.08403       -1.55131        0.00000
H         -0.31879       -2.55935        0.00000
C         -0.78206       -0.42644        0.00000
C         -2.19776       -0.52285        0.00000
C         -3.01691        0.56899        0.00000
H         -4.09580        0.44534       -0.00000
N         -2.80130       -1.86123       -0.00000
H         -2.52734       -2.40808       -0.82884
H         -3.82795       -1.80081       -0.00000
Cl         3.72020        0.10431       -0.00000
H         -2.52734       -2.40807        0.82884
