17
id_1269_cb.log	Energy: -516285.6527550
C          2.59629       -0.00011       -0.40893
H          2.89758        0.87927       -0.98054
H          2.89754       -0.87961       -0.98037
C          1.08883       -0.00006       -0.27964
C          0.36639        1.18280       -0.17957
C         -1.00989        1.19998       -0.01031
C         -1.69967        0.00005        0.07452
C         -1.00999       -1.19992       -0.01030
C          0.36630       -1.18285       -0.17956
F          1.00371       -2.35749       -0.24699
F         -1.67164       -2.35413        0.07505
F         -3.02024        0.00011        0.23916
F         -1.67147        2.35423        0.07502
F          1.00390        2.35738       -0.24702
N          3.31539       -0.00000        0.86615
H          3.00464       -0.81043        1.40184
H          3.00469        0.81055        1.40168
