24
id_1749_ca.log	Energy: -3564813.3431873
C          2.48873        3.09353       -0.81666
H          1.98159        3.85899       -0.22094
H          2.01777        3.04721       -1.80379
H          3.52548        3.41844       -0.94790
C          2.49686        1.72775       -0.12893
H          3.19862        1.10989       -0.69146
C          3.01006        1.87083        1.31289
H          2.34686        2.53888        1.87395
H          4.01468        2.30616        1.30723
H          3.05534        0.91377        1.84174
C          1.14501        1.01625       -0.11301
C          0.03134        1.81679       -0.09113
H          0.21653        2.88443       -0.11372
C         -1.34478        1.50487       -0.03826
H         -1.98970        2.37924       -0.02590
C         -1.97874        0.29877       -0.00786
C         -1.43273       -1.04338       -0.01304
O         -2.17130       -2.03269        0.00991
C          0.03571       -1.29541       -0.03891
C          1.10117       -0.41826       -0.07772
Br         2.80360       -1.30481       -0.07774
O          0.21183       -2.63012       -0.02042
H          1.15398       -2.87485       -0.03896
Br        -3.86534        0.34166        0.04859
