33
id_1387_ca.log	Energy: -362596.4518721
C         -1.97714       -0.65085       -1.06644
H         -1.50352       -0.90448       -2.01053
C         -2.80178       -1.57299       -0.42804
H         -2.96792       -2.54934       -0.87580
N         -3.42435       -1.33883        0.73164
C         -3.22333       -0.13685        1.28848
H         -3.73418        0.04776        2.22978
C         -2.41970        0.85025        0.73274
H         -2.30322        1.80517        1.23742
C         -1.77759        0.59976       -0.48257
C         -0.86327        1.62713       -1.10358
H         -1.37370        2.59395       -1.16026
H         -0.60392        1.33747       -2.12474
C          0.38966        1.86148       -0.26248
H          0.12508        2.29415        0.70498
H          1.09151        2.52658       -0.77042
N          1.13835        0.59797        0.03990
C          1.68834       -0.06428       -1.19282
H          0.85784       -0.23300       -1.87824
H          2.37975        0.65885       -1.63581
C          2.38101       -1.36852       -0.83106
H          1.63564       -2.06644       -0.42880
H          2.77137       -1.80469       -1.75470
C          3.49359       -1.14272        0.19017
H          3.94703       -2.09630        0.47404
H          4.27969       -0.52272       -0.25835
C          2.93058       -0.43674        1.42188
H          3.72148       -0.19011        2.13567
H          2.21627       -1.09119        1.93667
C          2.23123        0.85778        1.04094
H          2.91482        1.56357        0.56008
H          1.76179        1.33905        1.90036
H          0.47649       -0.06294        0.47457
