22
id_1818_ca.log	Energy: -479830.9558063
C         -0.84443        2.74771       -0.58085
H         -1.89711        2.63283       -0.83431
H         -0.21442        2.46040       -1.42196
H         -0.62772        3.76647       -0.26426
N         -0.54441        1.83241        0.56795
H          0.44145        1.95784        0.84353
C         -0.78525        0.41721        0.26737
C         -2.07406       -0.07417        0.43036
H         -2.86137        0.58577        0.78351
C         -2.32653       -1.41195        0.15183
H         -3.32748       -1.80789        0.28319
C         -1.29297       -2.23597       -0.29171
H         -1.48659       -3.28057       -0.51140
C         -0.01218       -1.72434       -0.46750
H          0.78649       -2.36545       -0.82804
C          0.26437       -0.38291       -0.18740
S          1.90183        0.28583       -0.41672
C          2.83422       -0.76555        0.74152
H          2.44951       -0.64958        1.75517
H          3.87022       -0.42308        0.70124
H          2.78865       -1.80996        0.43020
H         -1.11900        2.11292        1.37324
