41
id_129_ca.log	Energy: -331628.4097625
C         -2.92627        3.76892       -0.05255
H         -3.80362        3.11788       -0.12745
H         -3.12093        4.66655       -0.64648
H         -2.82314        4.07280        0.99458
C         -1.67193        3.04833       -0.53431
H         -0.80916        3.72273       -0.47883
H         -1.78576        2.76750       -1.58855
C         -1.38505        1.79418        0.29125
H         -2.25888        1.13346        0.25693
H         -1.22302        2.07166        1.34125
C         -0.15396        1.08059       -0.24245
H          0.67746        1.78282       -0.32724
H         -0.33201        0.63411       -1.22380
N          0.32448       -0.02436        0.65905
C          1.54255       -0.71041        0.10286
H          1.71415       -1.58526        0.73533
H          1.28773       -1.04797       -0.90414
C          2.77061        0.18622        0.09653
H          2.65471        0.99940       -0.62759
H          2.89648        0.64144        1.08775
C          4.01722       -0.62485       -0.25786
H          4.14819       -1.42555        0.47975
H          3.86630       -1.11181       -1.22902
C          5.26681        0.24752       -0.30502
H          5.16367        1.03695       -1.05696
H          6.15313       -0.34260       -0.55524
H          5.44341        0.72803        0.66314
C         -0.75282       -1.00857        1.03409
H         -0.27700       -1.72638        1.70645
H         -1.49812       -0.45226        1.60583
C         -1.38387       -1.71036       -0.15574
H         -1.84804       -0.97976       -0.82890
H         -0.62254       -2.25096       -0.72959
C         -2.45000       -2.69523        0.32588
H         -1.99072       -3.42042        1.00841
H         -3.20658       -2.15176        0.90498
C         -3.11369       -3.42574       -0.83629
H         -3.87481       -4.12650       -0.48124
H         -2.37545       -3.99294       -1.41303
H         -3.59809       -2.71747       -1.51676
H          0.61384        0.42332        1.53873
