32
id_110_ca.log	Energy: -783310.4898213
C          6.22720       -0.51996       -0.02461
H          7.29166       -0.72743       -0.07712
C          5.48165       -0.38479       -1.19676
H          5.96374       -0.48049       -2.16497
C          4.11753       -0.11038       -1.13738
H          3.53717        0.01558       -2.04545
C          3.50052        0.00895        0.10913
C          4.23459       -0.11694        1.28880
H          3.74161       -0.00781        2.24875
C          5.60127       -0.37964        1.21386
H          6.17511       -0.47843        2.13039
N          2.10448        0.29767        0.17682
C          1.14909       -0.42935       -0.46987
O          1.43451       -1.35756       -1.22464
C         -0.28300       -0.04495       -0.24659
C         -1.21106       -1.07627       -0.12460
H         -0.87328       -2.10904       -0.14192
C         -2.56535       -0.77702        0.02620
C         -3.01601        0.53507        0.02635
H         -4.06626        0.77996        0.13483
C         -2.06345        1.53606       -0.12471
C         -0.70702        1.28370       -0.25351
H         -0.00762        2.10301       -0.37493
N         -2.51793        2.93128       -0.14367
O         -3.71284        3.14709       -0.02414
O         -1.67919        3.80728       -0.27737
C         -3.54040       -1.91399        0.15823
F         -3.16387       -2.78633        1.11161
F         -4.77662       -1.49806        0.46736
F         -3.63738       -2.62112       -0.98497
O          1.69660        1.00816        1.29485
H          1.86681        1.94891        1.09549
