29
id_1833_cb.log	Energy: -303667.4356983
C          3.81161       -0.23783        0.02947
H          4.25941        0.49625        0.70627
H          4.22964       -0.05689       -0.96730
H          4.12643       -1.23581        0.34602
C          2.30959       -0.12015        0.01408
C          1.49426       -1.24745        0.05446
H          1.95284       -2.23166        0.13127
C          0.09705       -1.16127        0.02729
C         -0.50669        0.10494       -0.07457
C          0.30354        1.26003       -0.09819
C          1.69020        1.12979       -0.04828
H          2.30421        2.02838       -0.06800
C         -0.31197        2.63277       -0.18846
H         -0.89185        2.74708       -1.10946
H          0.46674        3.39983       -0.17661
H         -0.99539        2.83048        0.64367
N         -1.92556        0.31333       -0.12740
C         -2.70675       -0.52796       -1.02342
H         -3.01830       -1.48635       -0.58506
H         -2.13634       -0.72957       -1.93388
H         -3.61810        0.01181       -1.30695
C         -2.54216        0.43196        1.18736
H         -3.56401        0.81095        1.07652
H         -1.97946        1.13850        1.80367
H         -2.59398       -0.52857        1.72635
C         -0.69878       -2.43992        0.13735
H         -1.53439       -2.33949        0.83518
H         -0.05455       -3.24742        0.49504
H         -1.11339       -2.75040       -0.82749
