58
id_1257_cb.log	Energy: -573403.4145144
C          2.96829        2.47194       -1.62511
H          3.59370        2.50006       -2.51228
C          1.61996        2.81357       -1.70676
H          1.18931        3.10703       -2.65955
C          0.81928        2.77528       -0.56431
H         -0.23537        3.03519       -0.63016
C          1.35122        2.39104        0.66877
C          2.70849        2.05657        0.74010
H          3.13421        1.75791        1.69660
C          3.51399        2.10013       -0.39499
H          4.56676        1.84268       -0.32293
C          0.47611        2.23875        1.89560
H         -0.48964        2.72442        1.72146
H          0.94396        2.74350        2.74713
N          0.23261        0.83953        2.27979
H          1.14912        0.40654        2.39052
C         -0.50260        0.09226        1.23811
H         -0.31549        0.54731        0.25702
C         -2.00468        0.19475        1.51765
H         -2.21464       -0.28283        2.48499
H         -2.25562        1.25953        1.63630
C         -2.93677       -0.39526        0.45230
H         -2.81894       -1.48971        0.43799
C         -2.63172        0.12259       -0.95988
H         -2.67127        1.22348       -0.94736
H         -1.61237       -0.15325       -1.25698
C         -3.62329       -0.41575       -1.99501
H         -3.39576       -0.00151       -2.98367
H         -3.49975       -1.50523       -2.07085
C         -5.06931       -0.10736       -1.60607
H         -5.21877        0.98151       -1.60675
H         -5.76083       -0.52587       -2.34596
C         -5.38068       -0.65325       -0.21192
H         -5.30672       -1.74954       -0.22991
H         -6.40925       -0.40761        0.07542
C         -4.39702       -0.09803        0.81877
H         -4.61575       -0.50142        1.81539
H         -4.52456        0.99310        0.88304
C         -0.01891       -1.35622        1.18028
H         -0.11023       -1.79476        2.18530
H         -0.69333       -1.92806        0.52872
C          1.41103       -1.56025        0.66079
H          2.11899       -0.98426        1.28002
C          1.80473       -3.03892        0.77621
H          1.71841       -3.36319        1.82062
H          1.08410       -3.63637        0.19747
C          3.21534       -3.30842        0.24957
H          3.94225       -2.77470        0.87766
H          3.44997       -4.37595        0.32785
C          3.36166       -2.83232       -1.19659
H          4.38335       -3.00275       -1.55417
H          2.69350       -3.42269       -1.83918
C          2.99388       -1.35294       -1.31344
H          3.08059       -1.01185       -2.35178
H          3.70866       -0.76021       -0.72487
C          1.58067       -1.08632       -0.78914
H          0.85166       -1.62139       -1.41808
H          1.35346       -0.01682       -0.87718
