22
id_1958_cb.log	Energy: -324072.4508756
C         -3.43549       -0.60672        0.17016
H         -4.02591       -1.52235        0.15881
H         -3.75206        0.04715       -0.64889
H         -3.57241       -0.09116        1.12624
O         -2.08275       -1.00827        0.00183
C         -1.13983       -0.01689       -0.01977
C         -1.39034        1.34427        0.11408
H         -2.40272        1.70673        0.25158
C         -0.32032        2.24231        0.06900
H         -0.51412        3.30491        0.17307
C          0.97864        1.78107       -0.10630
H          1.80895        2.48126       -0.14125
C          1.24481        0.41405       -0.24426
C          0.17485       -0.47564       -0.19700
O          0.41979       -1.81774       -0.33031
H         -0.43292       -2.28566       -0.28603
C          2.64828       -0.12188       -0.40474
H          3.32809        0.71762       -0.57318
H          2.69915       -0.75879       -1.29338
N          3.15006       -0.90498        0.73355
H          2.51102       -1.68812        0.86859
H          3.04261       -0.33210        1.57046
