27
id_1534_ca.log	Energy: -986420.8890863
C         -3.66215        0.05951       -0.68449
H         -4.57411        0.28353       -1.22839
C         -3.25029       -1.25866       -0.51342
H         -3.83788       -2.07630       -0.92229
C         -2.07756       -1.53497        0.18688
C         -1.29543       -0.51124        0.73269
C         -1.71880        0.80749        0.55748
H         -1.12728        1.61783        0.97658
C         -2.88726        1.08026       -0.14377
Cl        -3.39675        2.74500       -0.34441
C         -0.01014       -0.80767        1.47992
H         -0.04631       -1.81502        1.90704
H          0.06786       -0.11043        2.31890
C          1.22862       -0.64392        0.62067
C          1.96562        0.54151        0.70126
H          1.63965        1.32356        1.38202
C          3.10958        0.71850       -0.06653
C          3.55632       -0.27530       -0.93038
H          4.45436       -0.13438       -1.52330
C          2.82843       -1.45608       -1.02164
H          3.15006       -2.25029       -1.68871
C          1.67124       -1.64234       -0.26231
O          1.03488       -2.84524       -0.41742
H          0.13478       -2.85292       -0.02915
Cl         4.00911        2.21722        0.06681
O         -1.63837       -2.82401        0.38030
H         -2.19250       -3.45188       -0.11457
