16
id_128_cb.log	Energy: -134088.0866901
C         -1.77543       -0.66687        0.34571
H         -1.10544       -1.48208        0.63976
H         -2.66192       -1.11789       -0.11052
H         -2.09228       -0.15119        1.25961
C         -1.09214        0.30171       -0.61691
H         -1.82725        1.02136       -0.99457
H         -0.72778       -0.24977       -1.49273
C          0.06707        1.07155        0.02103
H         -0.32257        1.72053        0.81697
H          0.52004        1.73035       -0.73184
C          1.15886        0.17788        0.61129
H          0.76266       -0.38230        1.46466
H          1.96076        0.81056        1.00564
N          1.75614       -0.78752       -0.31870
H          2.03398       -0.27692       -1.15813
H          1.01662       -1.41558       -0.63466
