17
id_1660_cb.log	Energy: -1818488.7747770
C         -0.82691        2.19359        0.11021
H         -0.96282        3.25990        0.26116
C         -1.92509        1.37564       -0.13939
H         -2.92384        1.80302       -0.18212
C         -1.76035        0.00215       -0.34064
C         -0.47547       -0.54307       -0.28674
H         -0.32883       -1.60817       -0.44235
C          0.61015        0.28772       -0.03565
C          0.45726        1.65439        0.16451
H          1.31879        2.28434        0.35596
Br         2.35417       -0.46614        0.03374
C         -2.96028       -0.89577       -0.54075
H         -2.66381       -1.78111       -1.10961
H         -3.71564       -0.36667       -1.12834
N         -3.58937       -1.34453        0.70917
H         -3.84169       -0.51174        1.24232
H         -2.86816       -1.80100        1.26850
