46
id_1059_cb.log	Energy: -521822.8150720
C          1.42162        3.97798        0.36611
H          1.62010        5.03945        0.47846
C          0.73362        3.28529        1.35826
H          0.39115        3.80413        2.24856
C          0.47736        1.92151        1.20801
H         -0.06468        1.38079        1.98075
C          0.90938        1.23855        0.07120
C          1.60353        1.94050       -0.91983
H          1.94701        1.41324       -1.80617
C          1.85567        3.30097       -0.77540
H          2.39410        3.83599       -1.55206
C          0.64862       -0.25365       -0.07779
H          0.02824       -0.55335        0.78190
C          1.95548       -1.02375        0.04058
C          2.67802       -1.44377       -1.07793
H          2.28576       -1.25252       -2.07120
C          3.89351       -2.11150       -0.92380
H          4.44291       -2.43530       -1.80288
C          4.40210       -2.36268        0.34786
H          5.34766       -2.88292        0.46607
C          3.68590       -1.94467        1.46998
H          4.07150       -2.13904        2.46635
C          2.47253       -1.28177        1.31437
H          1.91376       -0.95686        2.18960
N         -0.00860       -0.53516       -1.35546
H         -0.12324       -1.54715       -1.41701
C         -1.32565        0.09471       -1.49333
H         -1.74796       -0.25816       -2.44262
H         -1.17552        1.17656       -1.59787
C         -2.34829       -0.16025       -0.38096
H         -1.98127        0.29275        0.55381
C         -2.56907       -1.65516       -0.13187
H         -1.62734       -2.13739        0.15980
H         -2.88724       -2.12358       -1.07607
C         -3.63389       -1.89783        0.94047
H         -3.79116       -2.97305        1.08118
H         -3.27175       -1.50031        1.89896
C         -4.95154       -1.20884        0.58020
H         -5.69326       -1.36763        1.37096
H         -5.35587       -1.66383       -0.33488
C         -4.73836        0.28704        0.34138
H         -4.41405        0.75846        1.27946
H         -5.68058        0.76612        0.05262
C         -3.67437        0.52280       -0.73218
H         -3.51072        1.59746       -0.88085
H         -4.03444        0.11948       -1.69067
