12
id_1940_cb.log	Energy: -1057727.1842170
C          1.21016       -1.01290       -0.00000
H          2.15788       -1.54315       -0.00000
C          0.01502       -1.79108        0.00000
C         -1.18532       -1.01350        0.00000
C         -1.19661        0.37140        0.00000
H         -2.14135        0.90679        0.00000
C         -0.00000        1.08529       -0.00000
C          1.20061        0.37228       -0.00000
Cl         2.73160        1.21564       -0.00000
Cl        -0.04507        2.82887       -0.00000
Cl        -2.71948       -1.85671        0.00000
O          0.03506       -3.07816        0.00000
