23
id_1406_ca.log	Energy: -384365.7374919
C         -4.72110       -0.86116        0.00004
H         -5.30835       -1.77896        0.00005
H         -4.95071       -0.27591       -0.89634
H         -4.95069       -0.27588        0.89640
O         -3.35766       -1.27208        0.00003
C         -2.40638       -0.29142        0.00001
C         -2.69048        1.07431       -0.00000
H         -3.71191        1.43700        0.00001
C         -1.62941        1.98806       -0.00003
H         -1.85295        3.05083       -0.00004
C         -0.30941        1.56286       -0.00004
H          0.49193        2.29471       -0.00007
C         -0.02482        0.18468       -0.00003
C         -1.07868       -0.73127       -0.00001
H         -0.87788       -1.79968       -0.00001
C          1.34189       -0.34956       -0.00004
H          1.42007       -1.43657       -0.00010
C          2.47981        0.36232        0.00003
H          2.50997        1.44714        0.00011
C          3.77607       -0.33352        0.00001
O          3.94190       -1.54383       -0.00007
O          4.81073        0.52661        0.00008
H          5.64592        0.01996        0.00006
