19
id_1366_ca.log	Energy: -600909.3134456
C         -2.24202       -2.15411        0.09278
H         -2.46052       -3.21589        0.14632
C         -3.27879       -1.22760       -0.02752
H         -4.31127       -1.55950       -0.07504
C         -2.99361        0.13403       -0.08208
H         -3.78967        0.86537       -0.17790
C         -1.66981        0.55627       -0.01627
C         -0.60315       -0.34937        0.09747
C         -0.92546       -1.71610        0.15639
H         -0.12429       -2.43942        0.27534
C          0.78942        0.10825        0.17429
H          0.95990        1.12820        0.51248
C          1.85943       -0.63562       -0.14112
H          1.79163       -1.65058       -0.52005
C          3.21317       -0.07148        0.00703
O          3.48126        1.04891        0.41028
O          4.16381       -0.94673       -0.36092
H          5.04098       -0.53307       -0.24272
Cl        -1.36250        2.27776       -0.11054
