21
id_1407_ca.log	Energy: -182941.5097186
C          1.59254       -1.48115       -0.09844
H          1.53275       -2.48777        0.32369
H          2.52846       -1.02810        0.23727
H          1.60442       -1.56808       -1.19018
C          0.38302       -0.69411        0.35600
C         -0.96983       -1.28402       -0.02681
H         -0.90298       -1.69570       -1.03956
H         -1.24545       -2.09266        0.65172
C         -1.95434       -0.09658        0.01708
H         -2.55116       -0.10775        0.93023
H         -2.63672       -0.11656       -0.83345
C         -1.07397        1.16327       -0.00549
H         -1.02123        1.64855        0.97053
H         -1.34082        1.89970       -0.76252
N          0.31428        0.66612       -0.29903
C          1.37985        1.61538        0.10550
H          1.17708        2.57956       -0.36081
H          2.34377        1.23429       -0.22947
H          1.35717        1.70524        1.19227
H          0.42152       -0.48241        1.42983
H          0.38960        0.51209       -1.31339
