51
id_1984_ca.log	Energy: -604634.7790337
C          1.76687       -0.51567        2.81636
H          1.80596       -1.60493        2.90249
H          1.07480       -0.13900        3.57316
H          2.75506       -0.10256        3.03159
C          1.25080       -0.08198        1.45182
C         -0.09420       -0.75404        1.16445
H         -0.71307       -0.52395        2.03775
H          0.01548       -1.84274        1.12898
C         -0.89376       -0.26798       -0.07810
C         -0.24691       -0.80671       -1.29191
N          0.27985       -1.25237       -2.22303
C         -2.32892       -0.83612       -0.09925
C         -2.79655       -1.74717        0.84590
H         -2.15942       -2.10087        1.64830
C         -4.10745       -2.22246        0.76903
H         -4.46137       -2.92807        1.51402
C         -4.95215       -1.79973       -0.25097
H         -5.97018       -2.17202       -0.30654
C         -4.48316       -0.89492       -1.20454
H         -5.13297       -0.55998       -2.00680
C         -3.18099       -0.41704       -1.12779
H         -2.81764        0.29134       -1.86918
C         -0.92039        1.26681       -0.11403
C         -1.67032        1.92576        0.86618
H         -2.25002        1.34718        1.58146
C         -1.68023        3.31438        0.92679
H         -2.26581        3.81399        1.69208
C         -0.94454        4.06230        0.00635
H         -0.95541        5.14658        0.05278
C         -0.20042        3.41117       -0.97146
H          0.37252        3.98286       -1.69458
C         -0.18609        2.01648       -1.03245
H          0.40263        1.52191       -1.80129
N          2.28784       -0.34099        0.36991
C          2.82581       -1.74590        0.33131
H          3.41034       -1.88191        1.24423
H          1.97458       -2.42923        0.34075
C          3.68645       -1.92933       -0.91099
H          4.06268       -2.95595       -0.90775
H          3.05594       -1.81322       -1.80198
C          4.83265       -0.91950       -0.94145
H          5.51092       -1.11397       -0.10146
H          5.40956       -1.03058       -1.86364
C          4.28386        0.50213       -0.83068
H          5.09186        1.23620       -0.76748
H          3.68769        0.74618       -1.71962
C          3.41323        0.66092        0.40645
H          2.95242        1.64932        0.45693
H          3.97973        0.47285        1.32140
H          1.11901        1.00354        1.43841
H          1.82931       -0.18796       -0.53832
