21
id_181_ca.log	Energy: -229997.9377230
C         -0.55522        2.21379       -0.13440
H         -0.97939        2.36849       -1.13249
H          0.06124        3.08208        0.10882
H         -1.39130        2.18691        0.57323
C          0.26858        0.95195       -0.07954
C          1.63591        1.01885        0.19922
H          2.08743        1.99090        0.37851
C          2.42393       -0.12904        0.24940
H          3.48420       -0.04566        0.46780
C          1.85280       -1.37722        0.01709
H          2.45952       -2.27632        0.05028
C          0.49250       -1.46109       -0.26530
H          0.03236       -2.42796       -0.45498
C         -0.30008       -0.31252       -0.31453
C         -1.76962       -0.46535       -0.59613
H         -1.97154       -1.35589       -1.19110
H         -2.20191        0.40266       -1.09287
N         -2.53226       -0.64286        0.68938
H         -2.42384        0.17600        1.29956
H         -2.18914       -1.46334        1.20242
H         -3.53457       -0.77419        0.51036
