27
id_1002_cb.log	Energy: -279144.1009060
C         -3.13949       -0.76267        0.66946
H         -4.05170       -0.19685        0.45824
H         -2.73265       -0.38366        1.61455
H         -3.36610       -1.82431        0.77694
C         -2.12457       -0.55376       -0.42299
O         -1.53821       -1.49661       -0.93524
C         -1.81929        0.87128       -0.82073
H         -1.19714        0.85033       -1.71926
H         -2.75798        1.38318       -1.05955
C         -1.11102        1.62137        0.32432
H         -0.81818        2.60974       -0.04671
H         -1.82187        1.78684        1.14096
C          0.11764        0.88570        0.86633
H         -0.20106       -0.06739        1.30794
H          0.56122        1.47579        1.67637
C          1.17166        0.64015       -0.20755
H          1.38602        1.58871       -0.71586
H          0.76905       -0.04941       -0.97292
N          2.43768        0.11429        0.31196
C          2.22277       -1.20762        0.89390
H          3.18636       -1.65197        1.15729
H          1.70838       -1.88956        0.19219
H          1.62536       -1.14051        1.80569
C          3.36612       -0.02083       -0.80547
H          3.53458        0.95410       -1.27155
H          2.98809       -0.71083       -1.58067
H          4.32662       -0.40315       -0.44912
