17
id_1865_ca.log	Energy: -215414.5901289
C          2.45998       -0.96737        0.00002
H          2.50330       -1.60517       -0.88843
H          2.49883       -1.61343        0.88266
H          3.32515       -0.30433        0.00515
C          1.20232       -0.16404        0.00023
C          1.13406        1.20270        0.00067
H          2.04763        1.78316        0.00162
C         -0.13256        1.82463        0.00086
H         -0.19383        2.90799        0.00271
C         -1.28932        1.08848       -0.00027
H         -2.27086        1.54667        0.00047
C         -1.20287       -0.32130       -0.00080
N          0.03290       -0.87481       -0.00004
N         -2.27098       -1.11967       -0.01454
H         -2.18085       -2.12648        0.05109
H         -3.19551       -0.71257        0.04188
H          0.10298       -1.89307        0.00066
