36
id_1062_ca.log	Energy: -306232.3610852
C         -3.10925       -0.34948       -1.80916
H         -2.09795       -0.04465       -2.10256
H         -3.75091        0.53613       -1.84883
H         -3.46858       -1.05369       -2.56500
C         -3.12971       -1.00066       -0.42707
H         -2.48533       -1.88958       -0.43585
H         -4.13996       -1.36646       -0.21076
C         -2.71757       -0.07572        0.73021
C         -3.71641        1.06129        0.94611
H         -4.72428        0.65984        1.08777
H         -3.73820        1.74093        0.08798
H         -3.45496        1.64848        1.83197
C         -1.33336        0.53745        0.54239
H         -1.03536        1.10922        1.42492
H         -1.30081        1.19233       -0.33031
N         -0.28877       -0.51826        0.34643
H         -0.39730       -0.93981       -0.58612
C          1.13902       -0.06350        0.49694
H          1.20019        0.36867        1.50141
C          2.04407       -1.28674        0.39402
H          1.77651       -2.01086        1.17181
H          1.87704       -1.76511       -0.58096
C          3.51207       -0.87317        0.51640
H          3.68628       -0.45517        1.51650
H          4.14861       -1.75805        0.42137
C          3.87359        0.17138       -0.54005
H          4.91803        0.47947       -0.42624
H          3.77408       -0.27519       -1.53843
C          2.95207        1.38699       -0.43689
H          3.18914        2.11935       -1.21453
H          3.11203        1.88135        0.53031
C          1.47724        0.98795       -0.55330
H          1.28327        0.56445       -1.54894
H          0.84222        1.87078       -0.43466
H         -2.68571       -0.68273        1.64489
H         -0.45724       -1.27670        1.02163
