23
id_1573_ca.log	Energy: -277318.8894537
C          2.91179        1.09827       -0.23202
H          3.65721        0.95016       -1.01179
H          3.39613        1.22681        0.73885
H          2.32870        2.00045       -0.43990
C          1.98782       -0.07831       -0.18700
O          1.99030       -1.01622       -0.95615
O          1.11192        0.02390        0.83176
C          0.15278       -1.03267        0.95864
H          0.65473       -1.99561        0.84823
H         -0.23880       -0.94782        1.97449
C         -0.96161       -0.95460       -0.06623
H         -1.50898       -1.89904       -0.05967
H         -0.58057       -0.76768       -1.07264
N         -1.96787        0.11953        0.22241
C         -3.12147        0.00511       -0.71643
H         -3.54055       -0.99696       -0.63348
H         -2.75083        0.18434       -1.72639
H         -3.86265        0.75477       -0.44278
C         -1.38672        1.49427        0.17675
H         -0.89779        1.62093       -0.79063
H         -0.66976        1.60724        0.98701
H         -2.20190        2.20836        0.29055
H         -2.32314       -0.03646        1.17409
