31
id_1555_ca.log	Energy: -767162.2559816
C         -0.26182        3.10001       -0.60745
H          0.27260        2.62044       -1.43338
H          0.40509        3.82891       -0.13828
H         -1.12954        3.62969       -1.00964
C         -0.68721        2.07918        0.41983
H         -1.23455        2.53757        1.24711
H          0.17346        1.54154        0.82651
O         -1.57843        1.13722       -0.23805
P         -1.82047       -0.32048        0.39981
O         -1.33157       -0.43903        1.80883
C         -3.56468       -0.63107        0.13899
H         -3.84350       -0.39527       -0.89024
H         -4.12230        0.00879        0.82910
H         -3.79052       -1.67829        0.35708
S         -0.87445       -1.63802       -0.95204
C          0.72731       -0.77428       -1.13390
H          1.19248       -1.21130       -2.02208
H          0.52182        0.27891       -1.33807
C          1.61037       -0.98178        0.08726
H          1.75190       -2.04729        0.27750
H          1.19804       -0.51104        0.98385
N          2.97916       -0.39848       -0.10830
C          2.95981        1.08065       -0.30689
H          3.99114        1.42303       -0.38556
H          2.47563        1.53025        0.56134
H          2.42226        1.32062       -1.22271
C          3.86132       -0.75894        1.03985
H          3.88586       -1.84400        1.13344
H          3.44396       -0.30372        1.93855
H          4.85871       -0.36880        0.84075
H          3.38101       -0.82337       -0.95413
