40
id_1349_cb.log	Energy: -472505.3325249
C          4.12913       -1.82765       -0.04215
H          4.50608       -2.34970       -0.92644
H          4.51782       -0.79411       -0.06261
H          4.52775       -2.32357        0.84757
N          2.67393       -1.86763       -0.02406
C          2.16261       -1.19677       -1.22060
H          2.51960       -1.74032       -2.10197
H          2.57513       -0.17372       -1.28491
C          0.63692       -1.15715       -1.23910
H          0.26126       -2.18692       -1.26101
H          0.29517       -0.68057       -2.16274
C          0.02611       -0.47411        0.00679
C          0.66480       -1.17587        1.22344
H          0.33451       -2.22095        1.23439
H          0.33607       -0.72598        2.16474
C          2.18573       -1.15758        1.15876
H          2.55193       -0.11258        1.16509
H          2.59570       -1.64620        2.04859
C          0.28857        1.04160        0.05816
C         -0.02740        1.74799        1.22795
H         -0.43424        1.21659        2.08426
C          0.14597        3.12560        1.31176
H         -0.10687        3.64363        2.23217
C          0.63419        3.83940        0.21755
H          0.77154        4.91447        0.27974
C          0.93421        3.15729       -0.95666
H          1.30591        3.69792       -1.82206
C          0.76125        1.77415       -1.03524
H          1.00083        1.27574       -1.96867
C         -1.49774       -0.65770       -0.02932
C         -2.21083       -1.30392        0.98329
H         -1.69548       -1.70454        1.84960
C         -3.59837       -1.44509        0.90453
H         -4.12939       -1.95136        1.70523
C         -4.29693       -0.94289       -0.18772
H         -5.37506       -1.05462       -0.24888
C         -3.59743       -0.28773       -1.20239
H         -4.12968        0.11669       -2.05827
C         -2.21720       -0.14481       -1.11869
H         -1.68756        0.38495       -1.90732
