24
id_1157_ca.log	Energy: -254648.8730059
C         -3.39652        0.46097       -0.21110
H         -4.11318        0.48551        0.61309
H         -3.68865       -0.33855       -0.89991
H         -3.43990        1.41956       -0.73655
C         -2.01065        0.20178        0.34993
H         -1.69814        1.01802        1.00585
C         -1.89046       -1.13719        1.05077
H         -2.10353       -1.95513        0.35363
H         -2.62625       -1.17295        1.85789
H         -0.89887       -1.28595        1.48489
N         -1.02966        0.24713       -0.81581
H         -1.27086       -0.51559       -1.46524
C          0.38561        0.15000       -0.44390
C          1.00917        1.27296        0.08354
H          0.46030        2.20403        0.19204
C          2.34581        1.17453        0.45915
H          2.85124        2.04204        0.86979
C          3.03045       -0.03037        0.30464
H          4.07279       -0.10065        0.59778
C          2.38302       -1.14331       -0.22788
H          2.91606       -2.07991       -0.35148
C          1.04544       -1.05938       -0.60772
H          0.52283       -1.91504       -1.02622
H         -1.18753        1.12475       -1.32949
