15
id_1076_ca.log	Energy: -1794116.8245771
C          1.42878        1.89498        0.00171
H          1.71638        2.94040        0.00285
C          2.41011        0.90832       -0.00669
H          3.46509        1.16284       -0.01232
C          2.00724       -0.41775       -0.01025
C          0.67485       -0.80044       -0.00840
H          0.39542       -1.84896       -0.01459
C         -0.27977        0.20990        0.00009
C          0.07903        1.55336        0.00610
H         -0.68293        2.32469        0.01165
Br        -2.11259       -0.26243        0.00036
N          3.03353       -1.46805        0.00836
H          2.68384       -2.34612       -0.39814
H          3.86669       -1.18761       -0.52578
H          3.34002       -1.67402        0.96978
