15
id_1468_cb.log	Energy: -217230.6944140
C         -2.06196       -1.07640       -0.00002
H         -2.61770       -0.72598       -0.87884
H         -2.61771       -0.72597        0.87880
H         -2.07957       -2.17062       -0.00001
C         -0.64823       -0.56121       -0.00001
C          0.43998       -1.43255       -0.00001
H          0.24469       -2.50463       -0.00002
C          1.76353       -0.97501       -0.00001
H          2.59165       -1.67778       -0.00001
C          1.98949        0.40297        0.00001
H          3.00715        0.78846        0.00002
C          0.91955        1.29548        0.00001
H          1.10244        2.36875        0.00003
C         -0.43100        0.85400        0.00000
O         -1.43240        1.70052        0.00002
