20
id_1546_ca.log	Energy: -334043.0285549
C          2.98278       -1.37110       -0.00000
H          2.84777       -2.45377       -0.00001
H          3.56246       -1.07881        0.88218
H          3.56246       -1.07880       -0.88218
C          1.65070       -0.69352        0.00000
C          1.58899        0.75248        0.00000
N          0.48617        1.43236        0.00000
C         -0.67968        0.70656        0.00000
C         -1.92366        1.37539       -0.00000
H         -1.93103        2.46164        0.00000
C         -3.09482        0.64908       -0.00000
H         -4.05025        1.16507       -0.00000
C         -3.06472       -0.76455       -0.00000
H         -3.99608       -1.32239       -0.00000
C         -1.86013       -1.43304       -0.00000
H         -1.81444       -2.51847       -0.00000
C         -0.64781       -0.70723        0.00000
N          0.54740       -1.38709        0.00000
O          2.78045        1.38446       -0.00000
H          2.63056        2.34859       -0.00000
