41
id_1551_ca.log	Energy: -685681.1904244
C         -2.79932        0.20324       -2.31349
H         -2.33921       -0.60762       -2.88241
H         -2.07467        1.01687       -2.20691
H         -3.64832        0.57790       -2.89039
C         -3.30608       -0.24755       -0.95771
H         -3.98236       -1.10344       -1.02159
H         -3.82229        0.56929       -0.45129
N         -2.17969       -0.66845       -0.04905
C         -2.60143       -0.64454        1.39754
H         -3.60154       -1.08313        1.42915
H         -1.92126       -1.29597        1.94714
C         -2.55418        0.75933        1.96559
H         -3.22706        1.44483        1.44422
H         -1.53355        1.15281        1.91955
H         -2.85672        0.72029        3.01478
C         -1.63104       -2.00728       -0.44685
H         -2.33962       -2.75857       -0.08918
H         -1.59189       -2.04081       -1.53593
C         -0.25187       -2.28744        0.11486
H          0.03739       -3.29313       -0.19141
H         -0.20580       -2.22885        1.20448
O          0.72185       -1.39379       -0.46153
P          1.23020       -0.09757        0.31743
O          1.21866       -0.20763        1.79476
O          2.62008        0.22578       -0.36384
C          3.79074       -0.54199        0.04287
H          3.93910       -0.39408        1.11523
H          3.58871       -1.59877       -0.15334
C          4.96131       -0.03719       -0.76305
H          5.13136        1.02491       -0.56854
H          4.78369       -0.18069       -1.83188
H          5.85985       -0.59198       -0.48061
O          0.27203        1.02033       -0.29484
C          0.35607        2.38759        0.20152
H          0.30763        2.36402        1.29338
H          1.32262        2.79316       -0.10807
C         -0.79678        3.15143       -0.40082
H         -0.71994        3.16749       -1.49125
H         -0.78048        4.18133       -0.03452
H         -1.75070        2.69519       -0.11671
H         -1.43568        0.04052       -0.17119
