15
id_1075_ca.log	Energy: -1794113.8850592
C          2.86676       -0.29723        0.00028
H          3.95081       -0.30083       -0.00008
C          2.15725       -1.49448        0.00136
H          2.68396       -2.44246        0.00155
C          0.76521       -1.49015        0.00111
H          0.20743       -2.41964        0.00100
C          0.08597       -0.27859        0.00050
C          0.79898        0.91645       -0.00349
C          2.18587        0.91582       -0.00241
H          2.72528        1.85818       -0.00417
N          0.09128        2.20076        0.00261
H         -0.63058        2.25969       -0.72946
H          0.74819        2.97681       -0.16692
Br        -1.80344       -0.26745       -0.00034
H         -0.36405        2.39286        0.90763
