11
id_1332_cb.log	Energy: -108657.2481142
C         -1.43455       -0.00000        0.10081
H         -2.00535       -0.88632       -0.18715
H         -2.00535        0.88631       -0.18715
H         -1.32562        0.00000        1.19461
N         -0.14679       -0.00000       -0.59219
C          0.88395       -0.73838        0.13181
H          0.58364       -1.24150        1.04743
H          1.59824       -1.28149       -0.47821
C          0.88395        0.73838        0.13181
H          1.59824        1.28150       -0.47821
H          0.58363        1.24150        1.04743
