29
id_1376_ca.log	Energy: -480749.7371518
C          3.64837       -1.45586       -0.42797
H          4.56673       -1.98723       -0.66028
C          3.59914       -0.57982        0.65453
H          4.48005       -0.42190        1.27000
C          2.41857        0.10250        0.95480
H          2.39066        0.78590        1.79694
C          1.27527       -0.09548        0.17748
C          1.33016       -0.96992       -0.91276
H          0.44898       -1.12669       -1.52898
C          2.50979       -1.64692       -1.21290
H          2.53748       -2.32675       -2.05952
C         -0.00019        0.69123        0.48427
C         -1.28415       -0.09282        0.20378
C         -1.38755       -1.40053        0.69250
H         -0.53466       -1.86109        1.18512
C         -2.57429       -2.11372        0.55194
H         -2.64087       -3.12899        0.93191
C         -3.67515       -1.52566       -0.07607
H         -4.60036       -2.08318       -0.18892
C         -3.58210       -0.22060       -0.55288
H         -4.43431        0.24767       -1.03637
C         -2.39113        0.49544       -0.41022
H         -2.34460        1.51605       -0.78252
C          0.03588        1.98384       -0.35474
O         -0.02936        3.09505        0.12622
O          0.14178        1.74869       -1.66123
H          0.14368        2.59757       -2.14682
O          0.03809        1.05293        1.85239
H         -0.75260        1.58513        2.04980
