16
id_1865_cb.log	Energy: -215125.7713130
C          2.44513       -0.98437        0.00407
H          2.51646       -1.62243       -0.88264
H          2.50154       -1.63789        0.88047
H          3.30186       -0.30733        0.01702
C          1.14814       -0.22442       -0.00043
C          1.12753        1.16563        0.00398
H          2.05549        1.72644        0.01123
C         -0.11213        1.81138        0.00449
H         -0.16562        2.89620        0.01272
C         -1.27190        1.06221       -0.00356
H         -2.25404        1.52352       -0.00374
C         -1.15380       -0.34072       -0.00944
N          0.02676       -0.96832       -0.00576
N         -2.28304       -1.13472       -0.07732
H         -2.13548       -2.08204        0.25177
H         -3.12405       -0.71340        0.30000
