19
id_1847_ca.log	Energy: -641942.9592135
C         -2.00869        1.82971       -0.35377
H         -2.33539        2.80863       -0.68611
C         -2.87575        0.74634       -0.44183
H         -3.88029        0.86176       -0.83710
C         -2.43215       -0.49668       -0.01287
C         -1.16263       -0.70033        0.49963
H         -0.84553       -1.68659        0.82507
C         -0.30788        0.40006        0.58243
C         -0.72376        1.66149        0.15812
H         -0.04649        2.50626        0.22663
S          1.33437        0.18360        1.25229
C          2.14782       -0.23595       -0.30863
F          3.44125       -0.44651       -0.06354
F          1.64365       -1.33968       -0.86548
F          2.04754        0.73889       -1.21466
N         -3.35412       -1.63596       -0.09490
H         -2.87306       -2.52597        0.08890
H         -3.78692       -1.70186       -1.02622
H         -4.11706       -1.55031        0.59106
