42
id_1616_ca.log	Energy: -519480.2913501
C          4.74282        0.43655       -1.73479
H          4.04048        1.27463       -1.65994
H          4.26550       -0.34559       -2.33413
H          5.61724        0.79828       -2.28186
C          5.15622       -0.11046       -0.37060
H          5.65729        0.66083        0.22780
H          5.87595       -0.92446       -0.50395
C          3.99095       -0.67758        0.43088
C          4.42413       -1.40884        1.68847
H          3.56554       -1.75279        2.27239
H          5.03993       -0.75484        2.31521
H          5.01841       -2.28162        1.40866
N          3.06712        0.45618        0.82861
H          3.39593        0.84830        1.71943
C          1.61891        0.09533        0.93324
H          1.53398       -0.88934        1.39504
H          1.14154        0.84394        1.56907
C          0.99698        0.12120       -0.45809
C         -0.48808       -0.15216       -0.36400
C         -0.98551       -1.42901       -0.56739
H         -0.31229       -2.23902       -0.83396
C         -2.35564       -1.68579       -0.43720
H         -2.73100       -2.68876       -0.60305
C         -3.22602       -0.65665       -0.10767
C         -2.72107        0.64863        0.09932
C         -1.36255        0.89155       -0.02574
H         -0.96448        1.88909        0.12270
O         -3.65564        1.58991        0.41440
C         -3.18578        2.91452        0.62351
H         -4.06710        3.51093        0.85815
H         -2.70525        3.30780       -0.27844
H         -2.48164        2.95378        1.46126
O         -4.57532       -0.78690        0.03547
C         -5.11919       -2.08326       -0.17195
H         -6.19286       -1.98636       -0.01287
H         -4.70462       -2.80173        0.54293
H         -4.92819       -2.43011       -1.19287
O          1.29429        1.41324       -0.96896
H          1.06172        1.42569       -1.91153
H          3.39255       -1.33476       -0.20727
H          1.46435       -0.64916       -1.08556
H          3.12360        1.21777        0.13737
