50
id_19_ca.log	Energy: -556984.0647536
C          1.70360        4.72317       -0.45408
H          2.56706        4.80202       -1.12313
H          0.80958        4.59058       -1.07352
H          1.60450        5.67092        0.08271
C          1.86670        3.55505        0.51212
H          2.73308        3.72081        1.16316
H          0.98833        3.49240        1.16637
C          2.04138        2.23056       -0.22817
H          1.22333        2.09727       -0.94914
H          2.97954        2.24222       -0.79625
C          2.02869        1.06135        0.73971
H          2.83523        1.11890        1.47418
H          1.08020        1.02137        1.28059
N          2.20507       -0.24853        0.00712
C          3.66713       -0.62988       -0.06122
H          3.97783       -0.79558        0.97372
H          4.19247        0.23851       -0.46204
C          3.85886       -1.86935       -0.91557
H          4.92687       -2.10320       -0.92771
H          3.55838       -1.64872       -1.94722
C          3.04333       -3.03688       -0.36564
H          3.13931       -3.90980       -1.01653
H          3.42264       -3.31600        0.62445
C          1.57336       -2.64031       -0.25263
H          1.15270       -2.45154       -1.24890
H          0.97913       -3.43029        0.21587
C          1.40032       -1.37566        0.59408
C         -0.08991       -1.07611        0.75982
O         -0.66397       -1.55483        1.73348
N         -0.72787       -0.39343       -0.21774
H         -0.19837        0.08431       -0.94192
C         -2.13706       -0.15383       -0.19275
C         -2.58077        1.17697       -0.15660
C         -3.95470        1.41484       -0.14674
H         -4.31167        2.44028       -0.11397
C         -4.85978        0.35685       -0.16936
H         -5.92706        0.55531       -0.15611
C         -4.39691       -0.95285       -0.21906
H         -5.10140       -1.77933       -0.25498
C         -3.02785       -1.23572       -0.24144
C         -2.55372       -2.66087       -0.32977
H         -1.63309       -2.74166       -0.91603
H         -2.34340       -3.06825        0.66426
H         -3.31958       -3.28458       -0.79708
C         -1.59376        2.31315       -0.13243
H         -0.84945        2.17181        0.65879
H         -2.10520        3.26358        0.03658
H         -1.05035        2.38586       -1.08238
H          1.79661       -1.52199        1.60262
H          1.91069       -0.11576       -0.97148
