37
id_1282_cb.log	Energy: -447852.3481399
C          0.66822        3.38908       -0.49610
H          1.29377        3.43018       -1.39304
H          1.29337        3.64838        0.36605
H         -0.12387        4.13809       -0.58294
C          0.06666        1.99516       -0.31602
C          1.17478        0.94922       -0.32534
C          2.11860        0.91290        0.70693
H          2.06291        1.63822        1.51694
C          3.12092       -0.05335        0.72326
H          3.83964       -0.07284        1.53733
C          3.20038       -0.99690       -0.30127
H          3.97709       -1.75548       -0.28668
C          2.27783       -0.95686       -1.34504
H          2.33127       -1.68661       -2.14799
C          1.27649        0.01401       -1.35652
H          0.54899        0.03359       -2.16562
N         -0.77424        1.99663        0.89270
H         -0.15909        1.91895        1.70353
C         -1.78556        0.92938        0.98217
C         -2.89344        1.06756       -0.09406
H         -3.86702        0.92770        0.38399
H         -2.88688        2.06677       -0.53746
C         -2.67075       -0.05246       -1.13475
H         -2.16364        0.32072       -2.03401
H         -3.61078       -0.50448       -1.46591
C         -1.78249       -1.03730       -0.41209
C         -1.29051       -0.49308        0.77341
C         -0.40598       -1.21393        1.57275
H         -0.01500       -0.78110        2.49115
C         -0.00928       -2.48703        1.16703
H          0.68524       -3.05911        1.77532
C         -0.50465       -3.03465       -0.02153
H         -0.19182       -4.02913       -0.32623
C         -1.39608       -2.31459       -0.81575
H         -1.77599       -2.74134       -1.74059
H         -0.59283        1.79385       -1.16826
H         -2.21643        1.03436        1.98295
