21
id_1379_cb.log	Energy: -310874.3869680
C          3.34129       -0.16216       -0.11985
H          3.64943        0.05353        0.90767
H          3.53758        0.72728       -0.72497
H          3.92439       -0.99925       -0.50215
C          1.88497       -0.55215       -0.17152
O          1.54288       -1.67193       -0.54898
N          0.97475        0.40080        0.21946
C          1.39221        1.78328        0.46854
H          2.31153        1.79102        1.05216
H          0.61551        2.28015        1.04703
H          1.54768        2.33673       -0.46181
C         -0.42086        0.15654        0.10314
C         -0.98137       -1.05436        0.52494
H         -0.35676       -1.83211        0.94278
C         -2.35297       -1.21607        0.40322
H         -2.81928       -2.14214        0.72432
C         -3.12099       -0.17538       -0.11640
H         -4.19610       -0.26083       -0.22503
C         -2.46756        0.99200       -0.48210
H         -3.02673        1.83536       -0.87844
N         -1.14312        1.16428       -0.38369
