19
id_1986_ca.log	Energy: -335819.1569621
C         -3.02474        0.03505        0.47137
H         -4.06055        0.03319        0.79805
C         -2.59909       -0.86391       -0.50566
H         -3.30172       -1.56635       -0.94445
C         -1.26812       -0.85851       -0.92702
H         -0.93168       -1.55463       -1.69159
C         -0.36219        0.04422       -0.37071
C         -0.78968        0.94430        0.61091
H         -0.08133        1.64753        1.04416
C         -2.11820        0.94020        1.02938
H         -2.44729        1.64009        1.79192
C          1.08556        0.05906       -0.82753
C          1.99346       -0.34086        0.32322
O          2.80904        0.38621        0.84885
O          1.77383       -1.60362        0.69959
H          2.36163       -1.82704        1.44811
O          1.51380        1.33736       -1.25319
H          0.96471        1.59770       -2.01153
H          1.22083       -0.68742       -1.62039
