30
id_1109_cb.log	Energy: -327572.0265375
C         -0.51919        1.94075       -0.33833
H         -0.18429        1.90204       -1.38370
H         -0.07294        2.82377        0.12841
H         -1.59949        2.08153       -0.33355
N         -0.17729        0.72544        0.39651
C          1.12508        0.25490        0.20242
C          2.15250        1.14860       -0.16950
H          1.92857        2.19558       -0.33515
C          3.46614        0.71685       -0.31621
H          4.22574        1.44030       -0.59897
C          3.81310       -0.61628       -0.10990
H          4.83847       -0.95023       -0.22898
C          2.80642       -1.51150        0.24329
H          3.04134       -2.56096        0.39750
C          1.48690       -1.09566        0.39203
H          0.74249       -1.84032        0.64395
C         -1.25512       -0.26499        0.50898
H         -0.90548       -1.02511        1.20792
C         -2.57810        0.31544        1.08292
H         -2.87646       -0.28730        1.94636
H         -2.46568        1.34378        1.43615
C         -3.62431        0.15655       -0.02860
H         -4.64522        0.09279        0.35795
H         -3.58122        1.00613       -0.72174
C         -3.16666       -1.11304       -0.75412
H         -3.63398       -1.24661       -1.73393
H         -3.40618       -1.99276       -0.14408
C         -1.64865       -0.92682       -0.83609
H         -1.41121       -0.23359       -1.65330
H         -1.10203       -1.85578       -1.02176
