27
id_1751_cb.log	Energy: -255863.2874891
C         -2.88727       -0.06316       -0.05743
H         -3.34301       -0.97432        0.34136
H         -3.07285       -0.03478       -1.14639
H         -3.38875        0.79897        0.39276
N         -1.46717       -0.03286        0.26173
C         -0.81530       -1.20092       -0.32885
H         -1.36383       -2.07724        0.03442
H         -0.92458       -1.19761       -1.43233
C          0.67406       -1.35970        0.03955
H          0.86812       -2.43691        0.10232
C          1.00332       -0.72882        1.39945
H          0.25822       -1.03736        2.13833
H          1.96619       -1.12905        1.73669
C          1.08615        0.81818        1.31883
H          2.12462        1.13796        1.46577
H          0.50194        1.27522        2.12505
C          0.61466        1.36915       -0.03460
H          0.80824        2.44850       -0.05183
C         -0.90195        1.22378       -0.22480
H         -1.14118        1.37088       -1.29687
H         -1.40700        2.02951        0.32195
C          1.43291        0.74469       -1.17857
H          0.94300        0.97828       -2.13066
H          2.41521        1.22919       -1.21006
C          1.61464       -0.77975       -1.02128
H          2.64439       -1.00435       -0.71759
H          1.45413       -1.28757       -1.97870
