27
id_1585_ca.log	Energy: -279310.9331237
C          2.41597       -1.93502       -0.21702
H          1.63406       -1.93537       -0.98420
H          2.56518       -2.97104        0.10021
H          3.34461       -1.58685       -0.68309
C          2.03769       -1.05348        0.97049
H          2.76714       -1.18770        1.77574
H          1.06665       -1.36712        1.37142
C          1.98831        0.43638        0.62912
H          2.98617        0.77940        0.32798
H          1.69703        1.01232        1.51603
C          1.01554        0.74994       -0.50640
C         -0.40631        0.31222       -0.24522
C         -1.03217       -0.56683       -1.12966
H         -0.49590       -0.91032       -2.01064
C         -2.33414       -1.00183       -0.88702
H         -2.81164       -1.68778       -1.57957
C         -3.01876       -0.55395        0.23969
H         -4.03322       -0.89043        0.42950
C         -2.39914        0.32807        1.12555
H         -2.92978        0.67851        2.00519
C         -1.09664        0.75632        0.88786
H         -0.61687        1.43780        1.58751
N          1.04122        2.23952       -0.74513
H          0.70242        2.75095        0.07919
H          0.44901        2.49922       -1.54249
H          1.36638        0.31093       -1.44238
H          1.99808        2.56001       -0.93894
