30
id_1602_ca.log	Energy: -303967.3548235
C          3.59521       -0.95789       -0.45326
H          4.02485       -1.71438       -1.11661
H          4.34833       -0.70403        0.30152
H          3.40932       -0.06028       -1.05317
C          2.31647       -1.46845        0.20585
H          2.51481       -2.43046        0.69139
H          1.55884       -1.66665       -0.56359
C          1.75145       -0.50902        1.25712
H          2.45746       -0.43582        2.09261
H          0.82149       -0.92205        1.66558
C          1.48721        0.90935        0.74660
H          2.43007        1.39724        0.47185
H          1.03775        1.50787        1.54835
C          0.56388        0.93819       -0.46973
C         -0.78748        0.29896       -0.24926
C         -1.20772       -0.73894       -1.08174
H         -0.56253       -1.06845       -1.89217
C         -2.44426       -1.34912       -0.87715
H         -2.76104       -2.15781       -1.52815
C         -3.27032       -0.91840        0.15783
H         -4.23437       -1.39127        0.31725
C         -2.85741        0.12204        0.99028
H         -3.49876        0.46100        1.79770
C         -1.61939        0.72549        0.79143
H         -1.30161        1.53298        1.44794
N          0.36764        2.38059       -0.86746
H         -0.08893        2.91152       -0.11529
H         -0.21607        2.45894       -1.70859
H          1.05063        0.47352       -1.33052
H          1.27042        2.83072       -1.06165
