20
id_1327_cb.log	Energy: -182631.1090153
C         -2.07274       -1.28747       -0.06061
H         -3.08538       -1.55465       -0.37694
H         -1.90284       -1.72502        0.92941
H         -1.36728       -1.75242       -0.75737
C         -1.88152        0.22673       -0.02357
H         -2.61207        0.67835        0.65821
H         -2.06264        0.65781       -1.01489
C         -0.49580        0.60446        0.43184
C          0.18386        1.84502        0.00095
H          0.86220        2.32674        0.70140
H         -0.31107        2.51657       -0.69526
N          0.59021        0.55097       -0.54460
C          1.83926        0.02898        0.01923
H          2.67107        0.40160       -0.58740
H          1.99334        0.40405        1.04339
C          1.83170       -1.48936        0.02870
H          2.77162       -1.87546        0.43370
H          1.70495       -1.88734       -0.98276
H          1.01245       -1.86704        0.65076
H         -0.23437        0.24984        1.43077
