22
id_1942_ca.log	Energy: -266842.2777370
C         -2.90156       -0.58401       -0.00791
H         -3.30924       -0.03575       -0.86460
H         -3.32200       -0.12884        0.89624
H         -3.26552       -1.61374       -0.06386
C         -1.39170       -0.56281        0.00214
C         -0.68335       -1.76721       -0.00179
H         -1.23061       -2.70693       -0.00721
C          0.70818       -1.79076        0.00142
H          1.25346       -2.73180        0.00204
C          1.40875       -0.58793        0.00155
C          0.73797        0.64141       -0.00217
C         -0.66920        0.64602        0.00853
C         -1.38449        1.97480        0.01289
H         -0.94083        2.65957        0.74316
H         -2.44334        1.86760        0.25317
H         -1.31234        2.46327       -0.96753
C          1.51103        1.93536       -0.01461
H          1.12016        2.61792       -0.77643
H          2.56906        1.76638       -0.22005
H          1.43414        2.45225        0.95007
O          2.78921       -0.56950        0.00654
H          3.11956       -1.48306        0.00247
