52
id_1624_cb.log	Energy: -594407.3092771
C         -3.68424        1.38202       -0.33367
H         -3.63248        1.39843       -1.42744
H         -2.74135        1.78428        0.05439
H         -4.49580        2.04907       -0.02629
C         -3.91344       -0.02468        0.20511
H         -4.91559       -0.39219       -0.08087
H         -3.90084        0.01825        1.29792
N         -2.87288       -0.95504       -0.23847
C         -3.15879       -1.45184       -1.58586
H         -3.92664       -2.24711       -1.55013
H         -3.59154       -0.62984       -2.16494
C         -1.91833       -1.95108       -2.31564
H         -2.18668       -2.30523       -3.31588
H         -1.43196       -2.77964       -1.79144
H         -1.19080       -1.13983       -2.42289
C         -2.69494       -2.06829        0.69256
H         -3.64009       -2.62806        0.82880
H         -1.98760       -2.76732        0.23518
C         -2.15283       -1.64885        2.06440
H         -2.96465       -1.27132        2.69603
H         -1.77633       -2.55154        2.56184
C         -1.05015       -0.59113        1.99890
H         -0.71294       -0.36048        3.01517
H         -1.46959        0.33497        1.58743
C          0.14435       -1.02319        1.15264
H         -0.20231       -1.31079        0.15391
H          0.61709       -1.90884        1.60079
C          1.21445        0.07563        1.00437
C          0.63152        1.26468        0.23809
C          0.30521        2.46203        0.87712
H          0.49273        2.57470        1.93896
C         -0.26387        3.51552        0.15856
H         -0.50827        4.44131        0.67108
C         -0.52090        3.38273       -1.20308
H         -0.96660        4.20175       -1.75915
C         -0.19935        2.18762       -1.84770
H         -0.39171        2.07084       -2.91016
C          0.37844        1.14294       -1.13310
H          0.63968        0.22021       -1.64655
C          2.47047       -0.42501        0.28049
C          3.63721        0.34346        0.37329
H          3.62473        1.25369        0.96598
C          4.80212       -0.04619       -0.27825
H          5.69752        0.56222       -0.19301
C          4.81960       -1.21471       -1.04100
H          5.72748       -1.52086       -1.55159
C          3.66444       -1.98317       -1.14300
H          3.66616       -2.89412       -1.73391
C          2.49614       -1.59168       -0.48603
H          1.60764       -2.20791       -0.58123
O          1.58735        0.55898        2.29446
H          1.92932       -0.20203        2.79255
