19
id_154_ca.log	Energy: -1949276.0693008
C          0.36170        2.60295        0.32534
H          0.39798        3.67192        0.50769
C          1.53655        1.87139        0.19003
H          2.49969        2.36306        0.27301
C          1.47754        0.49402       -0.02869
C          0.24732       -0.18592       -0.14882
C         -0.90795        0.58570       -0.00270
C         -0.86603        1.95884        0.23190
H         -1.78726        2.52200        0.33943
Br        -2.63001       -0.20786       -0.11159
C          0.19624       -1.67443       -0.43006
H          0.97446       -1.94014       -1.15136
H         -0.76503       -1.93995       -0.86726
O          0.32991       -2.44996        0.75464
H          1.26083       -2.36287        1.02857
C          2.76037       -0.26423       -0.07944
O          2.89712       -1.41711        0.29494
O          3.77822        0.45623       -0.55607
H          4.59331       -0.08210       -0.51783
