20
id_1923_cb.log	Energy: -182651.8665084
C          1.93408        0.00000       -0.79830
H          1.29675        0.00000       -1.68829
H          2.57620       -0.88600       -0.85182
H          2.57620        0.88600       -0.85182
C          1.12065        0.00000        0.49784
H          1.83346        0.00000        1.33184
C          0.23836       -1.25281        0.62324
H         -0.13263       -1.33103        1.65284
H          0.82840       -2.15368        0.41721
C         -0.96360       -1.19987       -0.31459
H         -1.59303       -2.08176       -0.16287
H         -0.61879       -1.22592       -1.36237
N         -1.76075       -0.00000       -0.03596
H         -2.55075       -0.00000       -0.67882
C         -0.96360        1.19987       -0.31459
H         -0.61879        1.22592       -1.36237
H         -1.59303        2.08176       -0.16287
C          0.23836        1.25281        0.62324
H          0.82840        2.15368        0.41721
H         -0.13263        1.33103        1.65284
