15
id_1472_cb.log	Energy: -217228.9814424
C          2.84625       -0.00230        0.00184
H          3.25060       -0.55120       -0.85669
H          3.24755       -0.47778        0.90479
H          3.24124        1.01772       -0.03917
C          1.33680        0.00471       -0.00175
C          0.60166        1.19525       -0.00149
H          1.13452        2.14571       -0.00248
C         -0.79332        1.20274       -0.00028
H         -1.33118        2.14928       -0.00064
C         -1.54889        0.00050        0.00067
C         -0.78762       -1.20211       -0.00028
H         -1.32424       -2.14941       -0.00059
C          0.60381       -1.19111       -0.00150
H          1.13989       -2.14023       -0.00251
O         -2.86380       -0.00503        0.00176
