30
id_168_cb.log	Energy: -350864.2680038
C         -3.01757        2.00826       -0.69643
H         -3.74578        1.80387       -1.48929
H         -2.14862        2.50215       -1.14257
H         -3.47479        2.70365        0.01620
C         -2.60873        0.71405       -0.00892
C         -1.95239       -0.24062       -1.00464
H         -2.63994       -0.38620       -1.84838
H         -1.05362        0.24695       -1.40437
C         -1.57579       -1.60812       -0.42924
H         -2.48384       -2.15892       -0.15523
H         -1.08640       -2.19783       -1.21397
C         -0.64901       -1.54438        0.79529
H         -0.44691       -2.56919        1.12913
H         -1.15953       -1.03943        1.62418
C          0.65620       -0.83831        0.51025
C          1.57444       -1.38115       -0.39806
H          1.35132       -2.33096       -0.87915
C          2.76946       -0.73764       -0.69557
H          3.47957       -1.16464       -1.39705
C          3.06822        0.47963       -0.08027
C          2.17296        1.03946        0.82767
H          2.41420        1.98561        1.30561
C          0.97894        0.37881        1.11304
H          0.28759        0.82068        1.82670
O          4.25909        1.08031       -0.40394
H          4.33965        1.91108        0.09328
N         -3.80379        0.08604        0.57462
H         -4.20897        0.74811        1.23650
H         -3.50601       -0.70569        1.14494
H         -1.86448        0.96608        0.76389
