24
id_1779_cb.log	Energy: -278251.5584428
C         -0.68545        1.37648        0.00496
H         -0.30162        2.39425        0.01528
C         -2.06210        1.17314       -0.00082
H         -2.74138        2.02197        0.00338
C         -2.58786       -0.12457       -0.01060
C         -1.69270       -1.20468       -0.01166
H         -2.08547       -2.21845       -0.01648
C         -0.32087       -0.98566       -0.00576
H          0.34750       -1.84441       -0.00451
C          0.21573        0.30815        0.00182
C          1.70098        0.53952        0.00788
H          1.90133        1.61670        0.02062
C          2.59686       -0.12695       -1.06985
H          2.19300       -1.10539       -1.35050
H          2.81544        0.44602       -1.97494
C          3.69841       -0.27185        0.00096
H          4.30773       -1.17857       -0.00880
H          4.35548        0.60254        0.01194
C          2.59407       -0.15190        1.07207
H          2.81034        0.40002        1.99071
H          2.19023       -1.13675        1.32920
N         -3.96728       -0.34027       -0.08339
H         -4.25390       -1.22604        0.32073
H         -4.51016        0.42000        0.31314
