17
id_1_cb.log	Energy: -490992.2767930
C         -3.33655       -1.11985        0.00003
H         -4.40095       -0.88034        0.00003
H         -3.09841       -1.72191        0.88305
H         -3.09842       -1.72192       -0.88299
C         -2.53587        0.15814        0.00002
O         -3.12036        1.24759        0.00003
C         -1.06536        0.08174        0.00001
C         -0.29702        1.26119       -0.00000
H         -0.80207        2.22356       -0.00000
C          1.08541        1.21439       -0.00001
H          1.65297        2.14128       -0.00002
C          1.79438       -0.01670       -0.00002
C          1.00379       -1.19410       -0.00000
H          1.50474       -2.15845       -0.00000
C         -0.38122       -1.14732        0.00001
H         -0.93623       -2.08166        0.00002
S          3.53349       -0.07539       -0.00003
