21
id_1278_cb.log	Energy: -336901.8664567
C         -4.60783       -0.29515       -0.00001
H         -5.13192        0.66434       -0.00008
H         -4.92754       -0.86093        0.88190
H         -4.92753       -0.86105       -0.88184
C         -3.11503       -0.09902       -0.00001
C         -2.25154       -1.20635       -0.00001
H         -2.67406       -2.20902       -0.00002
C         -0.87237       -1.04563       -0.00001
H         -0.23567       -1.92608       -0.00001
C         -0.30031        0.23884       -0.00000
C         -1.16185        1.34311       -0.00000
H         -0.73905        2.34534       -0.00000
C         -2.54669        1.17664       -0.00001
H         -3.19335        2.05094       -0.00001
C          1.15103        0.47511        0.00000
H          1.44816        1.52378        0.00001
C          2.12072       -0.45075        0.00001
H          1.89851       -1.51544        0.00000
C          3.58060       -0.09228        0.00001
O          3.91537        1.12717        0.00002
O          4.39740       -1.06204        0.00001
