10
id_1001_ca.log	Energy: -108168.7131843
C         -1.98665       -0.25407       -0.00000
H         -2.99134       -0.62598        0.00001
C         -0.85816        0.16542        0.00000
C          0.50881        0.67400        0.00000
H          0.71140        1.27303        0.88867
H          0.71140        1.27303       -0.88867
N          1.48647       -0.46082        0.00000
H          2.44917       -0.10265        0.00000
H          1.36505       -1.05187        0.83108
H          1.36505       -1.05187       -0.83108
