19
id_1845_ca.log	Energy: -439293.1642256
C         -1.97933       -1.21777       -0.08392
H         -2.51967       -2.15007        0.04605
C         -0.62560       -1.21762       -0.40231
H         -0.07785       -2.14421       -0.53177
C          0.02213        0.00001       -0.55751
C         -0.62560        1.21763       -0.40230
H         -0.07787        2.14422       -0.53176
C         -1.97934        1.21777       -0.08392
H         -2.51968        2.15006        0.04606
C         -2.62613       -0.00000        0.06743
N         -4.06179       -0.00001        0.37768
H         -4.32999        0.82961        0.92323
H         -4.32999       -0.82963        0.92322
O          1.37599        0.00002       -0.92380
C          2.25289       -0.00000        0.11100
F          2.11087        1.07472        0.88982
F          2.11091       -1.07477        0.88976
F          3.47572        0.00003       -0.39504
H         -4.63189        0.00000       -0.48003
