27
id_1197_ca.log	Energy: -437055.7033461
C          2.18409       -1.16738       -1.53822
H          3.23862       -1.46398       -1.56423
H          1.97122       -0.59745       -2.44892
H          1.57883       -2.08044       -1.56191
Si         1.81898       -0.15243       -0.00017
C          2.18241       -1.16823        1.53768
H          1.57770       -2.08168        1.56019
H          1.96819       -0.59895        2.44847
H          3.23705       -1.46434        1.56479
C          2.81397        1.43819        0.00070
H          2.60379        2.04599       -0.88602
H          3.88566        1.20995        0.00161
H          2.60216        2.04586        0.88712
C         -0.02536        0.28417       -0.00088
C         -0.47584        1.61108       -0.00557
H          0.24499        2.42486       -0.00937
C         -1.83543        1.92294       -0.00159
H         -2.15969        2.95826       -0.00111
C         -2.78444        0.90661        0.00527
H         -3.84812        1.12539        0.01130
C         -2.33500       -0.40596        0.00850
C         -0.98945       -0.73500        0.00623
H         -0.69936       -1.78445        0.01290
N         -3.33135       -1.48934       -0.00686
H         -2.95003       -2.35522        0.39630
H         -4.16994       -1.23755        0.53224
H         -3.63712       -1.70536       -0.96568
