27
id_1255_ca.log	Energy: -279307.6361682
C          1.09867        2.35706       -0.70494
H          0.76832        2.86072        0.20930
H          0.45602        2.68126       -1.52747
H          2.12381        2.67395       -0.92062
C          1.02590        0.83516       -0.54456
C          1.99073        0.42767        0.56742
H          1.76120        0.94910        1.49973
H          3.02519        0.63697        0.28758
N          1.92018       -1.03702        0.87878
H          0.96689       -1.26637        1.18935
C          2.29384       -1.93385       -0.25041
H          2.35812       -2.95145        0.13089
H          3.25810       -1.60866       -0.63957
H          1.52677       -1.87093       -1.02047
C         -0.38861        0.36161       -0.26370
C         -1.05912        0.74813        0.90408
H         -0.56455        1.39916        1.62164
C         -2.35730        0.31040        1.15341
H         -2.86486        0.61918        2.06223
C         -3.00542       -0.52001        0.23913
H         -4.01793       -0.85962        0.43401
C         -2.34673       -0.91216       -0.92346
H         -2.84289       -1.55947       -1.64016
C         -1.04549       -0.47578       -1.16917
H         -0.53173       -0.78254       -2.07743
H          1.35871        0.37623       -1.48205
H          2.53871       -1.22768        1.67477
