30
id_1603_ca.log	Energy: -592351.9427167
C          4.14373       -1.46154       -0.40421
H          4.88825       -1.38600        0.39659
H          4.15368       -0.51645       -0.95816
H          4.46717       -2.24906       -1.09133
C          2.76109       -1.76603        0.16651
H          2.75797       -2.77323        0.59784
H          2.02268       -1.78110       -0.64573
C          2.32141       -0.77956        1.25213
H          2.98353       -0.88231        2.11975
H          1.31205       -1.03857        1.59348
C          2.34427        0.68922        0.82280
H          3.37238        1.00928        0.61628
H          1.96948        1.31617        1.64119
C          1.50447        0.95310       -0.42540
C          0.04971        0.57110       -0.28761
C         -0.51509       -0.34677       -1.17282
H          0.09006       -0.76827       -1.97064
C         -1.84765       -0.73156       -1.04663
H         -2.28567       -1.44734       -1.73359
C         -2.60836       -0.17780       -0.02474
C         -2.07183        0.74386        0.86930
H         -2.68429        1.16403        1.65949
C         -0.73769        1.11033        0.73410
H         -0.31469        1.82560        1.43578
Cl        -4.28431       -0.64984        0.14394
N          1.60210        2.42256       -0.74893
H          1.21990        2.99491        0.01451
H          1.08479        2.65200       -1.60571
H          1.93407        0.44505       -1.29175
H          2.58285        2.69858       -0.88306
