26
id_1166_cb.log	Energy: -372643.9660307
C         -4.00812        0.07632        0.16779
H         -4.83302       -0.63072        0.07571
H         -4.23345        0.92828       -0.47767
H         -3.96129        0.42977        1.20813
N         -2.77818       -0.58438       -0.25320
C         -2.69757       -1.99230        0.11774
H         -2.03275       -2.53531       -0.55748
H         -2.34086       -2.13594        1.14810
H         -3.68969       -2.43481        0.02589
C         -1.60319        0.15599       -0.13615
C         -1.62513        1.56437       -0.05752
H         -2.56814        2.09704       -0.05076
C         -0.44698        2.29924        0.01220
H         -0.50626        3.38174        0.06851
C          0.79504        1.67359        0.02026
H          1.71028        2.25004        0.07892
C          0.82788        0.27967       -0.04052
C         -0.34472       -0.47080       -0.11185
H         -0.25537       -1.54911       -0.14819
C          2.11370       -0.47132       -0.02077
O          2.20086       -1.68460       -0.07153
O          3.18364        0.32531        0.06010
C          4.45222       -0.34185        0.08496
H          5.19729        0.44806        0.15809
H          4.51211       -1.00487        0.95011
H          4.59355       -0.91663       -0.83230
