16
id_1995_cb.log	Energy: -737533.5845373
C          1.20215        1.02573        0.01732
H          2.14810        1.55627        0.04435
C         -0.00002        1.71680        0.03548
C         -1.20217        1.02571        0.01731
H         -2.14813        1.55623        0.04433
C         -1.20026       -0.36169       -0.00840
C          0.00001       -1.18236       -0.05249
C          1.20027       -0.36167       -0.00839
N          2.49509       -0.99313       -0.01191
O          3.46400       -0.34089       -0.40453
O          2.60490       -2.14669        0.38776
O          0.00001       -2.42597       -0.18347
N         -2.49507       -0.99317       -0.01191
O         -2.60486       -2.14673        0.38778
O         -3.46399       -0.34095       -0.40454
Cl        -0.00003        3.46037        0.10642
