17
id_1880_cb.log	Energy: -493440.0147496
C          3.02154       -0.75533       -0.01054
H          3.48845       -0.27685       -0.87953
H          3.25194       -1.82258       -0.04085
H          3.49896       -0.33235        0.88245
C          1.53512       -0.53024       -0.00007
C          0.63683       -1.59303        0.00942
H          1.02942       -2.60652        0.01589
C         -0.74514       -1.40250        0.00822
H         -1.43073       -2.24197        0.01347
C         -1.21293       -0.09629       -0.00083
C         -0.35809        0.99685       -0.00464
H         -0.75186        2.00865       -0.00654
C          1.02642        0.78643       -0.00577
N          1.89627        1.87048       -0.07886
H          1.48447        2.74447        0.23086
H          2.79565        1.71590        0.36442
Cl        -2.94486        0.19309       -0.00017
