24
id_1810_cb.log	Energy: -504214.0681960
C          2.40764       -1.25964        1.14237
H          3.05390       -1.25999        2.02721
H          2.61281       -2.16356        0.56225
H          1.36823       -1.29614        1.48640
C          2.65779        0.00000        0.32463
H          3.69116        0.00001       -0.03924
C          2.40763        1.25964        1.14238
H          1.36822        1.29612        1.48641
H          2.61278        2.16357        0.56226
H          3.05389        1.25999        2.02721
S          1.69942        0.00000       -1.25594
C          0.01704        0.00000       -0.67197
C         -0.66628        1.20239       -0.45401
H         -0.15728        2.14600       -0.63015
C         -1.98588        1.20676       -0.02180
H         -2.50453        2.14765        0.14178
C         -2.66644       -0.00000        0.20426
C         -1.98588       -1.20676       -0.02180
H         -2.50452       -2.14765        0.14178
C         -0.66628       -1.20239       -0.45401
H         -0.15728       -2.14600       -0.63015
N         -3.96559       -0.00000        0.69567
H         -4.49252       -0.83790        0.47461
H         -4.49252        0.83790        0.47461
