22
id_1967_ca.log	Energy: -277187.1182351
C         -0.23158        1.32271        0.06518
H          0.26156        2.28365       -0.06231
C         -1.56347        1.18694       -0.30189
H         -2.12233        2.02164       -0.71304
C         -2.20176       -0.04501       -0.13801
C         -1.50600       -1.12914        0.39259
H         -2.01134       -2.08294        0.51915
C         -0.16949       -0.97537        0.75640
H          0.36926       -1.82316        1.17305
C          0.48695        0.24739        0.60266
C          1.94815        0.40059        0.95488
H          2.26685       -0.41405        1.61441
H          2.11951        1.34118        1.48761
C          2.84190        0.42311       -0.27815
H          3.89399        0.52584       -0.01414
H          2.55990        1.21972       -0.96771
N          2.70988       -0.86292       -1.03355
H          1.73468       -1.02286       -1.31621
H          2.99837       -1.65985       -0.45353
O         -3.51517       -0.13018       -0.51527
H         -3.83544       -1.03265       -0.35185
H          3.28901       -0.86202       -1.88044
