19
id_164_cb.log	Energy: -333338.4637764
C          0.73252        2.31916        0.01716
H          0.00469        3.13257        0.04313
H          1.36181        2.43548       -0.86852
H          1.38784        2.40243        0.88756
C          0.00562        1.00011        0.00248
C         -1.38111        1.02403        0.00132
H         -1.88862        1.98462        0.00805
C         -2.16677       -0.14549       -0.00626
C         -1.51631       -1.39827       -0.00668
H         -2.10444       -2.31029       -0.00890
C         -0.14321       -1.45052       -0.00439
H          0.36380       -2.40710       -0.00398
C          0.62018       -0.27402       -0.00220
N          2.04815       -0.43418       -0.00147
O          2.77095        0.55809       -0.03667
O          2.51732       -1.57172        0.03295
N         -3.52267       -0.06625       -0.05499
H         -3.95798        0.81708        0.17857
H         -4.05723       -0.89271        0.18052
