53
id_1624_ca.log	Energy: -594705.6462696
C         -3.54570        1.52014        0.54038
H         -3.73249        1.89891       -0.46784
H         -2.51771        1.76673        0.82786
H         -4.22372        2.03378        1.22653
C         -3.78032        0.02715        0.65700
H         -4.79645       -0.26578        0.38394
H         -3.59126       -0.30262        1.67765
N         -2.86030       -0.74517       -0.25225
C         -3.39761       -0.74527       -1.65944
H         -4.35206       -1.27497       -1.61767
H         -3.58715        0.30071       -1.90655
C         -2.44889       -1.36758       -2.66544
H         -2.82467       -1.14333       -3.66689
H         -2.38762       -2.45289       -2.56620
H         -1.44425       -0.94310       -2.57954
C         -2.57966       -2.13842        0.24170
H         -3.53230       -2.67339        0.20109
H         -1.90082       -2.58590       -0.48420
C         -1.97537       -2.18364        1.64519
H         -2.75852       -2.05436        2.39723
H         -1.59306       -3.20287        1.77195
C         -0.85169       -1.17529        1.90096
H         -0.54295       -1.26073        2.94652
H         -1.23593       -0.15007        1.79431
C          0.36717       -1.37100        0.99572
H          0.05507       -1.60244       -0.02909
H          0.95117       -2.23204        1.34470
C          1.27828       -0.13014        0.96697
C          0.55567        1.03947        0.29459
C          0.33451        2.25031        0.95203
H          0.67306        2.37896        1.97376
C         -0.31672        3.29982        0.29927
H         -0.47536        4.23746        0.82365
C         -0.77025        3.14748       -1.00779
H         -1.28446        3.96215       -1.50805
C         -0.55643        1.93834       -1.67088
H         -0.89687        1.80557       -2.69404
C          0.11465        0.90094       -1.02829
H          0.32202       -0.02022       -1.56889
C          2.59393       -0.38007        0.21975
C          3.65212        0.51355        0.42362
H          3.52239        1.33924        1.11747
C          4.85975        0.35126       -0.24642
H          5.67058        1.05263       -0.07408
C          5.02803       -0.70784       -1.13920
H          5.96974       -0.83618       -1.66386
C          3.98016       -1.59817       -1.35163
H          4.10027       -2.42647       -2.04332
C          2.76897       -1.43579       -0.67675
H          1.96683       -2.14439       -0.85684
O          1.56432        0.27177        2.30346
H          2.05296       -0.45850        2.71875
H         -1.96258       -0.23536       -0.28828
