34
id_1238_cb.log	Energy: -422686.6718302
C          2.70515       -1.94244       -1.02464
H          1.72056       -1.82498       -1.49150
H          2.70365       -2.88628       -0.46980
H          3.45249       -2.00764       -1.82032
C          3.00736       -0.76764       -0.10305
C          2.07280       -0.77110        1.13436
H          2.23410       -1.71236        1.67164
H          2.37017        0.03784        1.81067
C          0.61254       -0.63475        0.78464
C         -0.20801       -1.74820        0.64963
H          0.19468       -2.73961        0.83949
C         -1.55001       -1.61806        0.27286
H         -2.16835       -2.50327        0.17878
C         -2.08432       -0.36220        0.02241
C         -1.26461        0.77926        0.15825
C          0.06290        0.63628        0.53746
H          0.68586        1.51612        0.66214
O         -1.87524        1.97269       -0.10309
C         -1.07120        3.13876        0.00242
H         -0.22249        3.09541       -0.68916
H         -0.70221        3.27164        1.02492
H         -1.71802        3.97449       -0.26389
O         -3.37582       -0.11716       -0.35169
C         -4.22166       -1.24856       -0.49618
H         -5.19408       -0.86004       -0.79837
H         -4.32094       -1.78965        0.45088
H         -3.84225       -1.92790       -1.26698
N          2.99264        0.47003       -0.88920
H          2.02807        0.63165       -1.18422
C          3.44626        1.63814       -0.14061
H          2.86832        1.86581        0.76669
H          3.41051        2.51880       -0.78735
H          4.48728        1.48725        0.16251
H          4.02942       -0.87862        0.28118
