14
id_1330_cb.log	Energy: -133315.1564806
C          2.00489        0.27477       -0.04278
H          1.79891        1.29269        0.30525
H          2.27559        0.32287       -1.10171
H          2.86571       -0.10693        0.51360
C          0.79715       -0.61904        0.17204
H          0.57532       -0.68618        1.24880
H          1.01043       -1.63472       -0.17573
N         -0.36877       -0.12158       -0.56797
C         -1.64115       -0.46901        0.05623
H         -2.46299       -0.67537       -0.62165
H         -1.60547       -1.09946        0.94119
C         -1.10232        0.90171        0.17222
H         -0.69860        1.20078        1.13690
H         -1.52899        1.70675       -0.41710
