19
id_1064_ca.log	Energy: -182191.4913790
C         -1.83490        0.00000        0.05210
H         -2.05433        0.00000        1.12741
H         -2.79259        0.00000       -0.47700
C         -1.04610       -1.25810       -0.30718
H         -0.88497       -1.29692       -1.39059
H         -1.59189       -2.16114       -0.02272
C          0.32192       -1.27785        0.40347
H          0.93205       -2.13205        0.10060
H          0.15970       -1.32803        1.48805
C          1.03714       -0.00000        0.14291
N          2.23420       -0.00000       -0.32735
H          2.72720        0.87181       -0.51760
C          0.32192        1.27785        0.40347
H          0.15970        1.32803        1.48805
H          0.93205        2.13205        0.10061
C         -1.04609        1.25810       -0.30718
H         -1.59188        2.16115       -0.02272
H         -0.88496        1.29692       -1.39059
H          2.72720       -0.87181       -0.51761
