26
id_1264_ca.log	Energy: -349011.0363159
C         -3.33115       -1.60496        0.23023
H         -4.37473       -1.32269        0.36603
H         -3.00094       -2.21434        1.07781
H         -3.22133       -2.17507       -0.69804
O         -2.60297       -0.38524        0.16662
C         -1.25743       -0.48074       -0.00829
C         -0.55142       -1.67003       -0.12200
H         -1.06898       -2.62055       -0.07436
C          0.83593       -1.64546       -0.30153
H          1.38186       -2.58009       -0.39049
C          1.51252       -0.43754       -0.37235
C          0.80311        0.76939       -0.25852
H          1.34097        1.71012       -0.31920
C         -0.57046        0.75506       -0.07703
O         -1.35456        1.86194        0.04108
C         -0.69826        3.12140       -0.01411
H          0.02974        3.21970        0.79801
H         -1.48016        3.87140        0.10168
H         -0.19539        3.25977       -0.97687
C          3.00435       -0.40385       -0.52513
H          3.34125        0.44747       -1.11700
H          3.39170       -1.32571       -0.95767
N          3.65678       -0.26079        0.82317
H          3.42272       -1.05898        1.42485
H          3.33442        0.59231        1.29535
H          4.67858       -0.21110        0.73847
