16
id_1489_cb.log	Energy: -217389.8809458
C         -0.99053       -0.74372        1.25340
H         -2.08649       -0.77037        1.28031
H         -0.64107       -0.24574        2.16587
H         -0.62311       -1.77465        1.26179
C         -0.51773        0.00604       -0.00000
C         -1.10888        1.41496       -0.00019
H         -2.20373        1.35594       -0.00018
H         -0.79923        1.97879       -0.88662
H         -0.79923        1.97902        0.88610
C         -0.99054       -0.74406       -1.25319
H         -2.08650       -0.77073       -1.28008
H         -0.62311       -1.77499       -1.26131
H         -0.64110       -0.24632       -2.16581
C          1.02877        0.03212       -0.00001
O          1.62505        1.14702       -0.00015
O          1.62209       -1.08739        0.00013
