13
id_1361_cb.log	Energy: -190465.3562665
C         -1.18366        1.17620        0.00377
H         -1.74870        2.10355        0.01039
C         -1.84154       -0.05812        0.00556
H         -2.92284       -0.12893        0.01283
C         -1.05819       -1.20044        0.00310
H         -1.52584       -2.18226        0.00877
N          0.28290       -1.19982       -0.00264
C          0.89999       -0.01126       -0.00878
C          0.19734        1.20903       -0.00485
H          0.74572        2.14560       -0.00687
N          2.27939       -0.02193       -0.07803
H          2.69894       -0.88310        0.25372
H          2.73298        0.80493        0.29301
