12
id_1332_ca.log	Energy: -108943.8261792
C         -1.50625        0.00000       -0.14712
H         -2.03560        0.89678        0.17244
H         -2.03560       -0.89678        0.17244
H         -1.38073       -0.00000       -1.22976
N         -0.16704       -0.00000        0.46925
C          0.94613        0.73792       -0.16291
H          0.65261        1.26424       -1.06354
H          1.57974        1.26643        0.53765
C          0.94613       -0.73792       -0.16291
H          1.57974       -1.26643        0.53765
H          0.65261       -1.26424       -1.06354
H         -0.15961       -0.00000        1.48957
