48
id_1436_ca.log	Energy: -569293.0705812
C         -1.41551       -3.36688       -0.10091
H         -2.42836       -3.61231        0.22835
H         -0.74680       -4.15336        0.25677
H         -1.38492       -3.36718       -1.19420
C         -0.92754       -2.04264        0.46474
C          0.43813       -1.65958       -0.10935
H          0.35935       -1.49837       -1.19099
H          1.06540       -2.54811        0.02242
C          1.13519       -0.47235        0.57908
H          1.03120       -0.61331        1.66226
C          2.62700       -0.41144        0.27702
C          3.18525       -0.94689       -0.88602
H          2.55890       -1.46403       -1.60702
C          4.55350       -0.82924       -1.13478
H          4.97132       -1.25364       -2.04275
C          5.37997       -0.17528       -0.22554
H          6.44453       -0.08749       -0.41922
C          4.83058        0.36477        0.93770
H          5.46636        0.87436        1.65549
C          3.46618        0.24799        1.18237
H          3.03776        0.67202        2.08807
C          0.49702        0.87086        0.23972
C         -0.05477        1.67200        1.24490
H         -0.01737        1.33176        2.27730
C         -0.65858        2.89219        0.93248
H         -1.08444        3.50016        1.72482
C         -0.70855        3.32749       -0.38872
H         -1.17588        4.27604       -0.63400
C         -0.15425        2.53750       -1.39846
H         -0.18793        2.87260       -2.43065
C          0.44254        1.31973       -1.08671
H          0.87775        0.71137       -1.87705
N         -1.95344       -0.94170        0.23970
C         -2.43864       -0.79853       -1.17171
H         -3.00189       -1.70088       -1.41619
H         -1.57629       -0.70302       -1.83391
C         -3.32699        0.43128       -1.25540
H         -2.74296        1.33331       -1.01340
H         -3.71930        0.52376       -2.26927
O         -4.43407        0.31781       -0.37733
C         -3.99313        0.21115        0.96527
H         -3.42382        1.11081        1.24588
H         -4.87885        0.14015        1.59839
C         -3.13227       -1.02550        1.16377
H         -2.75326       -1.07967        2.18589
H         -3.68493       -1.93383        0.91758
H         -0.85068       -2.10593        1.55478
H         -1.47896       -0.05559        0.47458
