37
id_1644_ca.log	Energy: -719996.6929379
C         -4.18095       -1.90092        1.04592
H         -4.97524       -2.65104        1.01923
H         -4.35226       -1.26064        1.91396
H         -3.22325       -2.41993        1.16424
C         -4.20758       -1.12793       -0.26011
H         -5.08611       -0.48020       -0.31225
C         -4.13557       -2.03199       -1.47809
H         -3.24328       -2.66538       -1.43446
H         -4.11476       -1.45021       -2.40440
H         -5.01672       -2.67738       -1.49541
N         -3.02578       -0.18345       -0.32198
H         -2.16145       -0.74354       -0.29255
C         -2.98708        0.85733        0.75037
H         -3.96107        1.34971        0.75560
H         -2.83723        0.34250        1.69869
C         -1.88994        1.90217        0.52149
C         -0.51202        1.27621        0.34733
C          0.29735        1.61754       -0.73739
H         -0.03552        2.35265       -1.46146
C          1.54699        1.02626       -0.90188
H          2.17033        1.28334       -1.75222
C          1.97613        0.09375        0.03474
C          1.19720       -0.25031        1.13726
H          1.55189       -0.97828        1.85981
C         -0.04725        0.34710        1.28793
H         -0.65560        0.08551        2.14897
S          3.57058       -0.66231       -0.16467
O          3.53865       -1.97532        0.49725
O          3.92536       -0.61272       -1.59135
C          4.68662        0.38935        0.72781
H          4.37864        0.41543        1.77463
H          4.65512        1.38587        0.28373
H          5.68389       -0.04673        0.62848
O         -2.23036        2.80062       -0.51462
H         -2.13754        2.36685       -1.37900
H         -1.87824        2.50759        1.43411
H         -3.04296        0.27309       -1.24359
