25
id_174_cb.log	Energy: -348732.1909233
C         -3.36159        0.36417       -1.69023
H         -3.35433       -0.59657       -2.22613
H         -3.31992        1.17041       -2.42624
H         -4.31098        0.44229       -1.15238
N         -2.25529        0.50135       -0.74524
H         -1.38481        0.48156       -1.27770
C         -2.22057       -0.62298        0.18776
H         -3.18961       -0.67072        0.69669
H         -2.05395       -1.59227       -0.30676
C         -1.13478       -0.37377        1.23818
C          0.25032       -0.43932        0.61188
C          0.76240       -1.67519        0.20512
H          0.18544       -2.58046        0.37586
C          2.01017       -1.74293       -0.40869
H          2.40910       -2.70374       -0.71971
C          2.75886       -0.58957       -0.62692
H          3.73385       -0.62685       -1.10194
C          2.24425        0.64000       -0.21914
C          0.99475        0.71901        0.39899
H          0.61224        1.68374        0.72139
O          3.01153        1.75246       -0.44784
H          2.54666        2.53681       -0.11258
O         -1.38503        0.86906        1.87260
H         -1.71388        1.44799        1.15911
H         -1.20756       -1.15026        2.00734
