18
id_1115_ca.log	Energy: -3432208.1931644
C          0.00001        3.79341       -0.01193
H          0.00017        4.14997       -1.04743
H          0.88995        4.19112        0.48058
H         -0.89008        4.19113        0.48031
C          0.00000        2.29153        0.01153
C         -1.20191        1.58214        0.01077
H         -2.14607        2.11668        0.01787
C         -1.19860        0.19547        0.00112
C         -0.00000       -0.51414       -0.00879
C          1.19860        0.19547        0.00113
C          1.20192        1.58214        0.01077
H          2.14607        2.11668        0.01788
Br         2.84977       -0.72284        0.00052
N         -0.00000       -1.97541       -0.00595
H          0.82339       -2.36230       -0.49055
H         -0.82339       -2.36230       -0.49054
Br        -2.84977       -0.72284        0.00052
H          0.00000       -2.37025        0.94964
