24
id_1195_ca.log	Energy: -254654.4081351
C         -3.26891       -0.00000        0.00316
H         -3.66835        0.88818       -0.49316
H         -3.64252        0.00006        1.03316
H         -3.66835       -0.88824       -0.49306
C         -1.76347       -0.00000       -0.01343
C         -1.05216       -1.20121       -0.00728
H         -1.59196       -2.14489       -0.00726
C          0.34236       -1.22910       -0.00158
C          0.99990        0.00000       -0.01293
C          0.34235        1.22910       -0.00158
C         -1.05216        1.20120       -0.00728
H         -1.59197        2.14488       -0.00726
C          1.10097        2.52954        0.01821
H          1.71046        2.65452       -0.88463
H          1.77221        2.58709        0.88220
H          0.40653        3.36985        0.07021
N          2.47338        0.00000       -0.01386
H          2.85677        0.82522       -0.49290
H          2.85677       -0.82520       -0.49292
C          1.10098       -2.52954        0.01821
H          1.71047       -2.65452       -0.88464
H          0.40654       -3.36985        0.07021
H          1.77222       -2.58709        0.88220
H          2.85839       -0.00001        0.94187
