18
id_1265_cb.log	Energy: -312242.7619078
C         -1.90082       -3.05626        0.00000
H         -2.39453       -4.02369        0.00000
C         -0.50484       -2.98093        0.00000
H          0.08779       -3.89128        0.00000
C          0.13361       -1.74471        0.00000
H          1.21935       -1.70769        0.00000
C         -0.61418       -0.55524        0.00000
C         -2.01408       -0.64498        0.00000
H         -2.60218        0.26981        0.00000
C         -2.65435       -1.88336        0.00000
H         -3.73955       -1.93050        0.00000
C          0.00000        0.78273        0.00000
H         -0.70487        1.61389        0.00000
C          1.30834        1.07253        0.00000
H          2.07051        0.29668        0.00000
C          1.82265        2.48690        0.00000
O          0.99316        3.44076        0.00000
O          3.08253        2.62332        0.00000
