23
id_1146_cb.log	Energy: -254356.2006286
C          2.36561       -1.17224       -0.98035
H          1.42348       -1.52997       -1.40778
H          3.08364       -1.99761       -0.99828
H          2.75133       -0.37260       -1.62117
C          2.16639       -0.67259        0.44693
H          3.11839       -0.32280        0.85476
H          1.84074       -1.48716        1.09752
N          1.22288        0.44359        0.55988
C          1.75954        1.70761        0.07159
H          1.29248        2.55175        0.58575
H          1.61807        1.84483       -1.01015
H          2.82859        1.73804        0.28858
C         -0.12262        0.18885        0.27498
C         -0.98976        1.22247       -0.13200
H         -0.61389        2.22782       -0.27740
C         -2.34294        0.97905       -0.35213
H         -2.97847        1.80408       -0.66153
C         -2.88126       -0.29413       -0.19093
H         -3.93534       -0.47962       -0.36879
C         -2.02983       -1.32769        0.19729
H         -2.41823       -2.33437        0.32361
C         -0.67785       -1.09994        0.42408
H         -0.05459       -1.93587        0.71892
