18
id_1334_ca.log	Energy: -577017.6765918
C          0.90455        2.12376       -0.32970
H          1.02158        3.15470       -0.64971
C         -0.32892        1.67249        0.13429
H         -1.17719        2.35126        0.17630
C         -0.48673        0.34693        0.55033
C          0.60339       -0.52368        0.49943
H          0.49692       -1.55650        0.81992
C          1.82727       -0.05332        0.03368
C          1.99975        1.26132       -0.38469
H          2.96536        1.60513       -0.74138
Cl         3.19063       -1.15229       -0.02084
C         -1.83201       -0.14155        1.03027
H         -2.30864        0.58793        1.68883
H         -1.71940       -1.07703        1.59193
C         -2.80685       -0.43767       -0.08391
O         -4.00655       -0.24743       -0.01052
O         -2.22915       -0.97622       -1.16451
H         -2.91652       -1.17696       -1.82964
