21
id_1869_ca.log	Energy: -323638.2402241
C         -0.42066       -1.21850        0.49615
H          0.06250       -2.17156        0.69437
C         -1.75947       -1.19203        0.11250
H         -2.32942       -2.11096        0.00854
C         -2.35642        0.03721       -0.12348
C         -1.66648        1.23416        0.00576
H         -2.16478        2.18133       -0.18146
C         -0.32878        1.19149        0.38914
H          0.22682        2.11846        0.50308
C          0.30234       -0.03132        0.63634
C          1.76442       -0.05933        1.03494
H          2.00289       -1.00079        1.53853
H          1.99755        0.77449        1.69949
C          2.63011        0.08697       -0.19694
O          3.13661        1.13273       -0.55120
O          2.80785       -1.00820       -0.95344
N         -3.76335        0.06921       -0.54546
H         -4.21896        0.95223       -0.28090
H         -4.30112       -0.69717       -0.11986
H         -3.85222       -0.02739       -1.56628
H          2.37412       -1.79130       -0.56681
