17
id_1606_ca.log	Energy: -217673.7374395
C         -1.97520       -1.06863        0.07183
H         -1.30433       -1.79711        0.54263
H         -2.05816       -1.32449       -0.99054
H         -2.96288       -1.18858        0.52729
C         -1.46613        0.35871        0.25178
H         -1.34579        0.58643        1.31841
H         -2.19520        1.07173       -0.14942
C         -0.12798        0.62711       -0.45947
C          0.34876        2.06090       -0.22713
H          0.47106        2.25717        0.84282
H         -0.39282        2.76121       -0.62274
H          1.30368        2.25175       -0.72663
C          0.89692       -0.34755        0.06482
O          1.38292       -0.30337        1.18224
O          1.21945       -1.31134       -0.81075
H          1.85886       -1.92279       -0.39391
H         -0.25155        0.43906       -1.53080
