17
id_1102_ca.log	Energy: -597330.1292843
C          1.88716       -1.36607        0.00316
H          2.70992       -2.07406        0.00182
C          0.57454       -1.81723       -0.02836
H          0.36652       -2.88031       -0.06793
C         -0.48637       -0.91410       -0.01700
C         -0.20220        0.45339        0.00943
C          1.10441        0.92346        0.01656
H          1.29876        1.99085        0.02767
C          2.12986       -0.00079        0.02477
N          3.51192        0.48070        0.08171
H          3.60541        1.41444       -0.34091
H          4.15234       -0.15365       -0.41544
N         -1.24956        1.47823        0.03402
O         -2.27807        1.23828        0.63612
O         -1.01017        2.52928       -0.53500
Cl        -2.09122       -1.55122       -0.11359
H          3.84270        0.54844        1.05547
