29
id_1156_cb.log	Energy: -303670.0092941
C         -2.23209        0.29014        1.50296
H         -2.67270       -0.22805        2.36139
H         -2.89434        1.12333        1.23536
H         -1.27104        0.70696        1.82210
C         -2.06147       -0.66688        0.32623
H         -1.31877       -1.42466        0.60672
C         -3.37263       -1.37750       -0.00347
H         -3.72451       -1.96660        0.84931
H         -3.25789       -2.05350       -0.85788
H         -4.15256       -0.64773       -0.25309
C         -1.56418        0.06287       -0.92920
H         -2.36110        0.72146       -1.29023
H         -1.38725       -0.66873       -1.72672
N         -0.37426        0.89588       -0.76259
C         -0.58219        2.29224       -0.41638
H         -0.54951        2.48378        0.66521
H         -1.55721        2.60565       -0.79153
H          0.17811        2.92094       -0.89171
C          0.81557        0.30035       -0.36302
C          1.06014       -1.07282       -0.58843
H          0.30067       -1.69231       -1.05180
C          2.27217       -1.65006       -0.23288
H          2.42343       -2.70865       -0.42492
C          3.28521       -0.89657        0.36094
H          4.22852       -1.35516        0.63831
C          3.05383        0.45626        0.59126
H          3.82193        1.06833        1.05588
C          1.84394        1.05155        0.24295
H          1.70433        2.10636        0.44610
