15
id_1330_ca.log	Energy: -133602.5716206
C         -2.03758        0.30735        0.03890
H         -1.82417        1.30350       -0.35895
H         -2.24478        0.38831        1.10967
H         -2.93109       -0.08001       -0.45604
C         -0.88171       -0.63600       -0.21882
H         -0.64709       -0.71645       -1.28234
H         -1.06640       -1.63575        0.17758
N          0.34760       -0.13335        0.44277
C          1.68919       -0.47011       -0.07123
H          2.41802       -0.68222        0.70032
H          1.66477       -1.13308       -0.92804
C          1.16788        0.90424       -0.21504
H          0.77324        1.21785       -1.17464
H          1.52410        1.67829        0.45250
H          0.27350       -0.03985        1.45761
