20
id_1377_ca.log	Energy: -359718.7788776
C         -3.00854       -1.39867       -0.00000
H         -3.62518       -2.29151       -0.00000
C         -3.59523       -0.13040       -0.00001
H         -4.67628       -0.02619       -0.00002
C         -2.80075        1.01087       -0.00000
H         -3.24684        2.00231       -0.00001
C         -1.40921        0.89830        0.00001
C         -0.79028       -0.36891        0.00001
C         -1.62443       -1.50301        0.00000
H         -1.15410       -2.48325        0.00000
C          0.65147       -0.59305        0.00001
H          0.93121       -1.64664        0.00003
C          1.66135        0.29787       -0.00001
H          1.52362        1.37024       -0.00003
C          3.04747       -0.19303       -0.00000
O          3.40446       -1.36228        0.00001
O          3.93666        0.81884       -0.00001
H          4.83996        0.44775       -0.00001
O         -0.61751        2.00620        0.00001
H         -1.17227        2.80547        0.00002
