23
id_1137_cb.log	Energy: -441130.0359673
C          2.54463       -1.96704       -0.10510
H          3.53350       -2.41211        0.00611
H          2.20697       -2.11156       -1.14161
H          1.86579       -2.50689        0.55879
N          2.62187       -0.55878        0.26435
C          3.86707        0.09845       -0.11482
H          4.07807        0.94318        0.54479
H          3.85206        0.46146       -1.15260
H          4.68483       -0.61428       -0.00533
C          1.45477        0.18649        0.12902
C          1.48445        1.59583        0.06006
H          2.43007        2.12336        0.07582
C          0.31277        2.33619       -0.03094
H          0.37757        3.41856       -0.08227
C         -0.93297        1.71559       -0.06922
H         -1.84753        2.29229       -0.14653
C         -0.96461        0.32604       -0.01943
C          0.19412       -0.43754        0.07214
H          0.10605       -1.51671        0.09480
C         -2.28409       -0.38603       -0.01189
F         -2.23125       -1.56326       -0.65778
F         -3.25673        0.33727       -0.58833
F         -2.70061       -0.65997        1.23928
