32
id_1648_cb.log	Energy: -479140.9711017
C         -3.95312        0.09846       -1.57343
H         -3.22384        0.26167       -2.37669
H         -4.91717        0.49988       -1.90197
H         -4.07008       -0.97991       -1.42978
C         -3.48822        0.79562       -0.29487
H         -4.20267        0.57109        0.50743
C         -3.42939        2.30419       -0.49562
H         -3.12189        2.81205        0.42296
H         -4.40664        2.69181       -0.79775
H         -2.70895        2.55317       -1.28433
N         -2.17382        0.33114        0.17800
H         -1.48853        0.56235       -0.54523
C         -2.10652       -1.10741        0.42848
H         -2.98858       -1.39084        1.01339
H         -2.09134       -1.72489       -0.47994
C         -0.85859       -1.39573        1.27407
C          0.40541       -1.19387        0.45364
C          0.75182       -2.12281       -0.53442
H          0.12767       -3.00149       -0.67814
C          1.88192       -1.94378       -1.32715
H          2.13797       -2.67676       -2.08427
C          2.69117       -0.82593       -1.15028
H          3.57633       -0.66385       -1.75251
C          2.32933        0.08311       -0.16560
C          1.20834       -0.07437        0.64202
H          0.97240        0.65506        1.40703
N          3.17093        1.26356        0.03595
O          2.85582        2.05872        0.90759
O          4.15249        1.40376       -0.67701
O         -0.88292       -0.57058        2.42298
H         -1.27849        0.26478        2.10202
H         -0.89196       -2.43724        1.61074
