17
id_1732_ca.log	Energy: -262332.0994645
C          2.82831       -0.29938        0.00000
H          3.36142        0.65346        0.00003
H          3.12506       -0.87448       -0.88316
H          3.12505       -0.87453        0.88314
C          1.34533       -0.09416       -0.00000
C          0.78716        1.17104        0.00001
H          1.38770        2.07326        0.00002
C         -0.60844        1.22727        0.00001
N         -1.37786        0.14927       -0.00001
C         -0.74421       -1.03793       -0.00002
N          0.57526       -1.20668       -0.00001
C         -1.61764       -2.25433        0.00001
H         -2.26484       -2.25053        0.88291
H         -1.01600       -3.16379       -0.00020
H         -2.26520       -2.25033       -0.88263
O         -1.20112        2.43721        0.00000
H         -2.16901        2.31602       -0.00001
