21
id_1027_ca.log	Energy: -648810.4518457
C          1.26645        1.21599       -0.00161
H          1.80309        2.15777       -0.01088
C          1.92871        0.00174       -0.00569
C          1.26769       -1.21267       -0.00278
H          1.80570       -2.15360       -0.00402
C         -0.11827       -1.18244        0.01641
C         -0.86070       -0.00028        0.01319
C         -0.11883        1.18210       -0.00215
N         -0.81213        2.48210       -0.04072
O         -1.98532        2.48423       -0.36724
O         -0.16887        3.47230        0.24606
C         -2.37795        0.01364        0.09648
O         -2.95351        0.19887        1.14102
O         -2.93671       -0.18802       -1.08484
H         -3.91170       -0.17038       -0.99430
N         -0.80739       -2.48510        0.05406
O         -0.14524       -3.48007       -0.16562
O         -1.99800       -2.48509        0.30923
N          3.40011        0.00239       -0.01495
O          3.96419       -1.07588       -0.02764
O          3.96297        1.08139       -0.00880
