50
id_1354_ca.log	Energy: -546770.3357012
C          4.44379       -2.39583       -0.58637
H          5.20562       -2.88227       -1.20059
H          3.46948       -2.67070       -1.00811
H          4.50908       -2.81296        0.42464
C          4.66470       -0.88520       -0.57053
H          4.50584       -0.45887       -1.56755
H          5.70584       -0.67139       -0.30769
C          3.82669       -0.12896        0.45944
C          4.02946        1.37411        0.36651
H          3.48928        1.91948        1.14333
H          3.74067        1.76160       -0.61452
H          5.09600        1.57234        0.50201
N          2.35821       -0.51072        0.34797
C          1.51745        0.05787        1.45367
H          2.03558       -0.15024        2.39174
H          1.46641        1.13787        1.29956
C          0.13792       -0.57830        1.42701
H         -0.41314       -0.22066        2.29989
H          0.25023       -1.66343        1.54241
C         -0.61151       -0.28524        0.11023
C          0.31281       -0.79153       -1.02118
H          0.38254       -1.88276       -0.93178
H         -0.10429       -0.58749       -2.01036
C          1.72208       -0.21179       -0.97667
H          1.73269        0.87355       -1.09042
H          2.33939       -0.65936       -1.75649
C         -0.93901        1.21396       -0.00110
C         -0.69815        1.96232       -1.15735
H         -0.23418        1.50567       -2.02574
C         -1.05488        3.31010       -1.22921
H         -0.85271        3.86666       -2.13935
C         -1.66399        3.93564       -0.14703
H         -1.93906        4.98427       -0.20208
C         -1.92618        3.19728        1.00674
H         -2.41405        3.66660        1.85567
C         -1.57140        1.85411        1.07439
H         -1.80978        1.29280        1.97405
C         -1.93975       -1.05003        0.02824
C         -2.43111       -1.83473        1.07373
H         -1.87767       -1.92994        2.00166
C         -3.64755       -2.50979        0.94871
H         -4.00961       -3.11350        1.77551
C         -4.39081       -2.41151       -0.22213
H         -5.33529       -2.93791       -0.31854
C         -3.91370       -1.62349       -1.27051
H         -4.48684       -1.53106       -2.18812
C         -2.70520       -0.94874       -1.14227
H         -2.35512       -0.32292       -1.96015
H          4.09944       -0.47888        1.46037
H          2.32633       -1.53295        0.46899
