17
id_1946_ca.log	Energy: -449428.3901241
C         -1.98993       -1.42799        0.00645
H         -2.75774       -2.19422        0.00049
C         -0.64761       -1.77220       -0.00345
H         -0.34257       -2.81221       -0.04206
C          0.32319       -0.77655       -0.00711
C         -0.06579        0.56347        0.00370
C         -1.39392        0.93062        0.00326
H         -1.67766        1.97844        0.03762
C         -2.36530       -0.08179        0.00141
O         -3.68362        0.20010        0.00411
H         -3.83900        1.16151       -0.01176
N          0.91200        1.65447        0.13522
O          0.84118        2.56802       -0.66491
O          1.69611        1.59538        1.06368
N          1.71640       -1.16222       -0.13721
O          2.04513       -2.26685        0.26506
O          2.48299       -0.37072       -0.66743
