17
id_1481_cb.log	Energy: -299019.4689487
C          1.38265       -1.74616       -0.00000
H          1.94553       -2.67713       -0.00000
C          0.01680       -1.76063       -0.00000
H         -0.52822       -2.70292        0.00000
C         -0.71963       -0.54045        0.00000
C         -2.12908       -0.50408        0.00000
H         -2.67304       -1.44860        0.00000
N         -2.85602        0.60077        0.00000
C         -2.16331        1.77916        0.00000
H         -2.77287        2.67870        0.00000
C         -0.79612        1.87519        0.00000
H         -0.31816        2.85148        0.00000
C          0.00000        0.69173        0.00000
C          1.40745        0.69039       -0.00000
H          1.94372        1.63752       -0.00000
C          2.14585       -0.51014       -0.00000
O          3.44094       -0.54931       -0.00000
