23
id_1739_ca.log	Energy: -486230.6007444
C         -0.72182        1.18145       -0.27947
H         -0.18877        2.09623       -0.51979
C         -2.10987        1.18715       -0.27876
H         -2.66382        2.09177       -0.50061
C         -2.77458       -0.00290       -0.00064
C         -2.10318       -1.18888        0.27879
H         -2.65198       -2.09680        0.49996
C         -0.71527       -1.17477        0.28146
H         -0.17713       -2.08627        0.52291
C         -0.00962        0.00541        0.00129
C          1.46693        0.00897        0.00200
C          2.21294        1.10574        0.44034
H          1.72040        1.99886        0.81660
N          3.54525        1.12387        0.44804
C          4.13826        0.01679        0.00700
N          3.54999       -1.09187       -0.43681
C          2.21649       -1.08378       -0.43494
H          1.73147       -1.97977       -0.81392
O          5.48189        0.05196        0.02373
H          5.82730       -0.79199       -0.31996
N         -4.23531       -0.00751       -0.00202
O         -4.81397       -1.05984        0.22979
O         -4.82026        1.04106       -0.23502
