21
id_1175_ca.log	Energy: -549520.7845412
C         -2.30909       -0.17369        1.54280
H         -2.15606        0.83081        1.94141
H         -1.72571       -0.91155        2.09659
H         -3.37049       -0.43418        1.54917
S         -1.78306       -0.19666       -0.15077
O         -1.87968       -1.57310       -0.65627
O         -2.48875        0.86746       -0.87743
C         -0.05783        0.24091       -0.08306
C          0.29629        1.58633       -0.04002
H         -0.46712        2.35736       -0.06858
C          1.64461        1.92370        0.02677
H          1.94277        2.96533        0.05584
C          2.61600        0.92648        0.04869
H          3.67116        1.17798        0.09618
C          2.21767       -0.40162        0.00383
C          0.88651       -0.77887       -0.06195
H          0.59582       -1.82450       -0.10635
N          3.24327       -1.45046        0.04566
H          2.95518       -2.28282       -0.48602
H          4.13369       -1.12046       -0.35089
H          3.42939       -1.75261        1.01271
