21
id_1773_ca.log	Energy: -837898.8402478
C         -2.47820        0.08017        1.42716
H         -2.22252        1.13508        1.53053
H         -2.03252       -0.51835        2.22357
H         -3.56376       -0.04968        1.40951
S         -1.88563       -0.53502       -0.12659
O         -2.37273        0.31650       -1.21631
O         -2.18558       -1.97000       -0.18939
C         -0.09737       -0.39254       -0.04173
C          0.62172       -1.58430       -0.02188
H          0.08900       -2.52799       -0.03434
C          2.01082       -1.56692        0.00754
H          2.57999       -2.49018        0.01800
C          2.64902       -0.33914        0.01965
C          1.96347        0.86491        0.00553
H          2.49662        1.81005        0.01478
C          0.57502        0.83340       -0.02915
Cl        -0.26085        2.35493       -0.05241
N          4.11292       -0.30045        0.07414
H          4.49129        0.53103       -0.40067
H          4.52919       -1.13075       -0.37027
H          4.44649       -0.27511        1.04926
