25
id_1685_ca.log	Energy: -231489.0904565
C          1.94400       -1.75967        0.02344
H          1.63586       -2.76256        0.33241
H          2.91368       -1.54444        0.47979
H          2.06821       -1.75736       -1.06447
C          0.90541       -0.73119        0.45279
C         -0.44649       -1.11313       -0.15448
H         -0.76529       -2.10254        0.17983
H         -0.40805       -1.09308       -1.24817
N         -1.52668       -0.15094        0.24332
C         -1.18664        1.25288       -0.16169
H         -1.14410        1.24958       -1.25409
H         -2.00969        1.88798        0.16933
C          0.14254        1.67205        0.45302
H          0.37756        2.68180        0.10691
H          0.02615        1.70854        1.54448
C          1.23464        0.69971        0.08375
C          2.35117        1.08089       -0.53395
H          3.13285        0.37873       -0.80747
H          2.52027        2.12581       -0.78098
C         -2.84609       -0.56609       -0.30746
H         -3.60317        0.13471        0.04301
H         -3.06572       -1.57407        0.04350
H         -2.77870       -0.54578       -1.39563
H          0.79014       -0.77409        1.54623
H         -1.59447       -0.16932        1.26956
