32
id_1447_cb.log	Energy: -490402.9488995
C          5.00916       -1.51377        0.16675
H          5.97710       -2.00183        0.22448
C          4.87477       -0.17861        0.54546
H          5.73697        0.37537        0.90343
C          3.63552        0.44823        0.46778
H          3.52795        1.48646        0.76268
C          2.51152       -0.25549        0.01972
C          2.65487       -1.59498       -0.36143
H          1.80068       -2.14842       -0.73926
C          3.89705       -2.21862       -0.28994
H          3.99657       -3.25481       -0.59750
C          1.19073        0.42123       -0.05060
C         -0.00000       -0.30022        0.04029
H         -0.00000       -1.36742        0.21755
C         -1.19073        0.42123       -0.05060
N         -1.19781        1.75177       -0.19038
C          0.00000        2.35471       -0.23839
N          1.19781        1.75177       -0.19040
N          0.00000        3.71648       -0.31030
H          0.85658        4.14533       -0.63596
H         -0.85658        4.14533       -0.63595
C         -2.51152       -0.25548        0.01972
C         -3.63552        0.44822        0.46781
H         -3.52794        1.48645        0.76274
C         -4.87477       -0.17861        0.54548
H         -5.73697        0.37535        0.90346
C         -5.00916       -1.51377        0.16674
H         -5.97710       -2.00183        0.22445
C         -3.89706       -2.21861       -0.28997
H         -3.99657       -3.25479       -0.59756
C         -2.65487       -1.59497       -0.36145
H         -1.80069       -2.14839       -0.73929
