24
id_1978_cb.log	Energy: -324828.6241325
C         -3.17448       -1.38636       -0.08327
H         -3.24169       -1.60288        0.99694
H         -4.14871       -1.02462       -0.42275
H         -2.95173       -2.32188       -0.60429
N         -2.14721       -0.39779       -0.38308
C         -2.42243        0.83778        0.35202
H         -2.34251        0.66680        1.44153
H         -3.45114        1.14509        0.14488
C         -1.45198        1.93433       -0.06707
H         -1.71097        2.31727       -1.06283
H         -1.52256        2.78551        0.61902
C         -0.04380        1.42598       -0.09080
H          0.76426        2.14958       -0.15405
C          0.22883        0.11768       -0.02836
C         -0.85179       -0.93012        0.03271
H         -0.89766       -1.33951        1.06062
H         -0.58625       -1.76760       -0.62086
C          1.61522       -0.39823        0.01541
O          1.88383       -1.58344        0.11643
O          2.55690        0.55044       -0.05525
C          3.90999        0.08165       -0.00280
H          4.11245       -0.58477       -0.84352
H          4.53166        0.97278       -0.06652
H          4.09223       -0.44346        0.93682
