27
id_1206_ca.log	Energy: -550357.9952557
C          4.71051        0.12251       -0.00000
H          5.73505        0.48107        0.00000
C          4.44998       -1.24946       -0.00003
H          5.27199       -1.95856       -0.00004
C          3.13687       -1.71176       -0.00003
H          2.92584       -2.77630       -0.00005
C          2.07701       -0.80367       -0.00001
C          2.33919        0.57691        0.00001
C          3.65815        1.03380        0.00002
H          3.85227        2.10163        0.00003
C          1.22894        1.56624        0.00003
O          1.44940        2.76945        0.00005
C         -0.17337        1.05144        0.00001
C         -1.23134        1.96139        0.00000
H         -1.02162        3.02574        0.00001
C         -2.54205        1.50162       -0.00001
H         -3.37005        2.20326       -0.00002
C         -2.79916        0.12708       -0.00001
C         -1.74781       -0.78795       -0.00000
H         -1.94076       -1.85519       -0.00000
C         -0.43238       -0.32735       -0.00000
C          0.68134       -1.31870       -0.00002
O          0.44881       -2.52020       -0.00003
C         -4.21942       -0.32750       -0.00001
O         -5.17157        0.42995       -0.00015
O         -4.34833       -1.65714        0.00016
H         -5.29801       -1.88573        0.00015
