16
id_1744_cb.log	Energy: -407093.0163888
C         -2.60250       -0.27219        0.20269
H         -3.31977        0.51189       -0.06172
H         -2.52714       -0.31844        1.29329
H         -2.99544       -1.22447       -0.16273
C         -1.25422        0.05334       -0.41673
C         -0.66733        1.38494        0.06681
H         -0.95013        1.55868        1.11371
H         -1.06582        2.21343       -0.52311
N          0.79289        1.36692       -0.00260
C          1.24898        0.17779        0.01404
S          0.05697       -1.15913        0.01305
C          2.69865       -0.17724        0.04731
H          2.91698       -0.78843        0.92889
H          3.30401        0.72987        0.08102
H          2.96762       -0.76280       -0.83684
H         -1.33347        0.05803       -1.50783
