18
id_1483_ca.log	Energy: -299309.8976327
C          1.91575        1.58674       -0.00000
H          2.68994        2.34866       -0.00000
C          0.59093        1.95322       -0.00000
H          0.29503        2.99810       -0.00001
C         -0.40972        0.94683        0.00000
C         -1.80063        1.22955        0.00000
H         -2.14383        2.26008        0.00000
C         -2.70029        0.19613       -0.00000
H         -3.76763        0.39493       -0.00000
N         -2.34627       -1.12259       -0.00000
C         -1.05941       -1.40319        0.00000
H         -0.78781       -2.45535       -0.00000
C         -0.03475       -0.42253        0.00000
C          1.34950       -0.76164        0.00000
C          2.30663        0.22611        0.00000
H          3.35932       -0.04369       -0.00000
O          1.65171       -2.09246        0.00000
H          2.61716       -2.21211       -0.00002
