49
id_1038_cb.log	Energy: -522179.8245124
C          3.56895        2.44828        1.04105
H          4.07477        3.36955        0.73593
H          4.15153        1.99716        1.85207
H          2.58774        2.71953        1.44830
C          3.40963        1.47686       -0.12441
H          4.39036        1.23470       -0.55346
H          2.83342        1.96188       -0.92443
C          2.69983        0.18956        0.29420
H          1.78533        0.46432        0.83717
H          3.33064       -0.35486        1.01045
C          2.35387       -0.70764       -0.89463
H          3.28046       -1.06228       -1.36325
H          1.84127       -0.10504       -1.65483
C          1.46642       -1.91614       -0.55537
C          2.09457       -2.86527        0.47436
H          2.15027       -2.36001        1.44756
H          1.42349       -3.72223        0.61064
C          3.48099       -3.36558        0.07982
H          3.46783       -3.80576       -0.92373
H          3.83219       -4.13116        0.77809
H          4.21687       -2.55507        0.08004
C          0.10154       -1.47963       -0.03467
H          0.20357       -0.94062        0.91541
H         -0.54319       -2.35270        0.14378
O         -0.50759       -0.61769       -0.99228
N         -1.58154        0.09187       -0.38355
C         -1.48228        1.46893       -0.86329
H         -1.43804        1.49917       -1.96214
H         -2.38962        1.98855       -0.53460
C         -0.25876        2.14640       -0.25925
C         -0.18293        3.61584       -0.61918
H         -1.06419        4.14677       -0.24444
H         -0.13158        3.74060       -1.70466
H          0.71115        4.06729       -0.17778
O         -0.30144        2.04057        1.16282
H         -0.60816        1.13554        1.35313
C         -2.84882       -0.55300       -0.74898
H         -3.24091       -0.18256       -1.70686
H         -2.64992       -1.62522       -0.84146
C         -3.85007       -0.34859        0.38367
C         -5.14250       -1.09688        0.12688
H         -5.62417       -0.72756       -0.78286
H         -5.83315       -0.96235        0.96386
H         -4.94061       -2.16654        0.00907
O         -3.28156       -0.84251        1.59284
H         -2.36386       -0.51327        1.59639
H          1.30642       -2.48296       -1.48362
H          0.63685        1.63443       -0.63614
H         -4.06389        0.72591        0.48899
