14
id_1154_cb.log	Energy: -187131.0160233
C         -2.26401        1.20504       -0.00619
H         -2.80508        2.14725       -0.00530
C         -0.87352        1.20731       -0.00397
H         -0.33941        2.15144        0.00049
C         -0.18113        0.00000       -0.00374
C         -0.87352       -1.20731       -0.00397
H         -0.33940       -2.15143        0.00049
C         -2.26401       -1.20504       -0.00618
H         -2.80508       -2.14724       -0.00529
C         -2.98132        0.00000       -0.00884
N         -4.37108       -0.00000       -0.07536
H         -4.79937       -0.83655        0.30657
H         -4.79938        0.83653        0.30661
I          1.94548       -0.00000        0.00229
