29
id_1598_cb.log	Energy: -303675.4712670
C          3.16375       -1.03967        1.17116
H          4.06441       -0.53753        0.79708
H          3.37194       -2.11396        1.21273
H          2.98327       -0.68826        2.19282
C          1.97138       -0.74407        0.26232
H          1.09727       -1.27993        0.65763
C          2.24475       -1.24995       -1.15392
H          2.54823       -2.30222       -1.13823
H          3.05538       -0.67286       -1.61669
H          1.36238       -1.16809       -1.79692
C          1.66387        0.75627        0.28403
H          2.55315        1.30905       -0.04832
H          1.46898        1.06662        1.32132
C          0.48098        1.20464       -0.57916
C         -0.78485        0.43434       -0.24185
C         -1.35834        0.53188        1.03221
H         -0.89371        1.16674        1.78431
C         -2.51685       -0.17167        1.34730
H         -2.94831       -0.08543        2.34023
C         -3.12412       -0.98726        0.39079
H         -4.02825       -1.53587        0.63653
C         -2.56428       -1.09061       -0.87960
H         -3.03127       -1.71982       -1.63157
C         -1.40207       -0.38323       -1.19054
H         -0.96945       -0.46208       -2.18556
N          0.33930        2.66332       -0.44551
H          0.12016        2.86379        0.53170
H         -0.49126        2.94815       -0.96474
H          0.71671        1.00447       -1.63024
