17
id_1504_cb.log	Energy: -299018.8744111
C         -2.77091        0.79027        0.00000
H         -3.84984        0.90213        0.00000
C         -2.16450       -0.44678        0.00000
H         -2.75175       -1.36303        0.00000
C         -0.75833       -0.53074        0.00000
C         -0.05190       -1.76878        0.00000
H         -0.62601       -2.69349        0.00000
C          1.31378       -1.79896        0.00000
H          1.84538       -2.74818        0.00000
C          2.11258       -0.58817        0.00000
C          1.40977        0.62945        0.00000
H          1.96705        1.56364        0.00000
C          0.00000        0.68158        0.00000
N         -0.62229        1.90685        0.00000
C         -1.94196        1.93294        0.00000
H         -2.40059        2.92013        0.00000
O          3.41007       -0.66675        0.00000
