23
id_1161_ca.log	Energy: -407659.2260228
C         -3.79518       -0.24630        0.12887
H         -4.43065       -1.11754        0.28452
H         -3.99976        0.18845       -0.85465
H         -3.98391        0.49420        0.91257
O         -2.45708       -0.72948        0.20129
C         -1.44363        0.17183        0.06286
C         -1.66532        1.52999       -0.18143
H         -2.67244        1.91927       -0.27304
C         -0.58162        2.39648       -0.31006
H         -0.76195        3.44973       -0.50124
C          0.71832        1.92178       -0.20104
H          1.56193        2.59356       -0.31278
C          0.93235        0.55757        0.02971
C         -0.13692       -0.33976        0.18027
C          0.06660       -1.81003        0.47896
H         -0.84544       -2.22881        0.90148
H          0.86972       -1.93453        1.21204
O          0.35187       -2.57126       -0.69359
H          1.24596       -2.30296       -0.97130
C          2.33475        0.05800        0.06236
O          2.68074       -1.06700       -0.26216
O          3.21520        0.98032        0.46457
H          4.11470        0.60079        0.41858
