38
id_193_ca.log	Energy: -448121.8897432
C          3.61006        2.38681        0.26378
H          4.47746        3.01830        0.46985
H          2.89828        2.50555        1.08731
H          3.12354        2.76805       -0.64122
C          4.03150        0.94852        0.10091
C          5.38389        0.60777        0.17076
H          6.11419        1.39573        0.33565
C          5.81011       -0.71153        0.03691
H          6.86823       -0.94827        0.09242
C          4.87290       -1.72002       -0.17628
H          5.19176       -2.75080       -0.29571
C          3.52268       -1.39845       -0.25178
H          2.79659       -2.18202       -0.44848
C          3.08117       -0.07513       -0.10546
C          1.64789        0.25412       -0.17574
H          1.40296        1.27276       -0.46975
C          0.65533       -0.60207        0.11416
H          0.89890       -1.60137        0.47200
C         -0.78278       -0.31306        0.02679
C         -1.68552       -1.23921        0.57030
H         -1.30251       -2.14116        1.03832
C         -3.05736       -1.02692        0.52534
H         -3.73835       -1.75605        0.95332
C         -3.52985        0.13144       -0.07712
C         -2.66735        1.06826       -0.63210
H         -3.06157        1.96217       -1.10774
C         -1.29813        0.84106       -0.58186
H         -0.63118        1.56765       -1.03401
N         -4.98135        0.37648       -0.14812
C         -5.68924       -0.64540       -0.98393
H         -6.73427       -0.34707       -1.06266
H         -5.60463       -1.61218       -0.48884
H         -5.21689       -0.66933       -1.96492
C         -5.61070        0.49782        1.20577
H         -6.65046        0.79137        1.06398
H         -5.06751        1.25538        1.76876
H         -5.55390       -0.47080        1.70164
H         -5.10870        1.28260       -0.61565
