17
id_1522_ca.log	Energy: -309355.8961839
C          2.66359       -0.96908        0.00000
H          3.53370       -1.61887        0.00000
C          2.85441        0.44533       -0.00000
H          3.86388        0.84446       -0.00000
C          1.77954        1.29080       -0.00000
H          1.89880        2.37036       -0.00000
C          0.46042        0.75204        0.00000
C          0.26714       -0.65673        0.00000
C          1.40721       -1.51237        0.00000
H          1.25559       -2.58808        0.00000
C         -1.05730       -1.11192        0.00000
H         -1.29732       -2.17190        0.00000
C         -2.04713       -0.15234        0.00000
N         -1.80530        1.17577        0.00000
N         -0.58290        1.61797        0.00000
O         -3.37426       -0.43811       -0.00000
H         -3.51040       -1.40164       -0.00002
