39
id_1026_cb.log	Energy: -401054.3752957
C          3.42552       -0.53961       -1.10567
H          4.43518       -0.58057       -1.52616
H          3.36888        0.34837       -0.46773
H          2.72237       -0.39654       -1.93490
C          3.09363       -1.81710       -0.33682
H          3.81797       -1.96076        0.47571
H          3.20676       -2.67564       -1.00883
C          1.67742       -1.81485        0.24271
H          1.40659       -2.82678        0.57040
H          0.96706       -1.55007       -0.55436
C          1.49666       -0.86065        1.42465
H          1.94994        0.11461        1.20286
H          2.02565       -1.25954        2.29861
C          0.02516       -0.65094        1.77339
H         -0.08428       -0.20583        2.77507
H         -0.47555       -1.62531        1.80401
N         -0.64726        0.18228        0.76801
C         -2.06250       -0.15497        0.60596
H         -2.54461       -0.37775        1.57142
H         -2.57786        0.70710        0.16637
C         -2.22233       -1.32607       -0.35827
C         -3.67909       -1.64784       -0.62451
H         -4.17941       -1.94941        0.30025
H         -3.76579       -2.46478       -1.34647
H         -4.19110       -0.76916       -1.03076
O         -1.60678       -0.98354       -1.59856
H         -0.79487       -0.50765       -1.34520
C         -0.43151        1.61622        0.98269
H         -1.26942        2.07764        1.52681
H          0.47142        1.75565        1.58831
C         -0.20472        2.31515       -0.35249
C          0.04029        3.80124       -0.18850
H          0.24602        4.26615       -1.15680
H          0.89993        3.97139        0.46834
H         -0.83678        4.28675        0.24894
O          0.94503        1.74577       -0.98032
H          0.88364        0.78636       -0.81918
H         -1.72216       -2.21248        0.06222
H         -1.08584        2.15096       -0.99284
