16
id_1906_ca.log	Energy: -599553.8014057
C          1.57187        1.41075       -0.00000
H          2.47951        2.00619       -0.00000
C          0.33427        2.03044       -0.00000
H          0.25481        3.11280       -0.00000
C         -0.84083        1.26909       -0.00000
C         -0.75688       -0.13645        0.00000
C          0.50178       -0.75882        0.00000
H          0.56660       -1.84139        0.00000
C          1.64550        0.01429        0.00000
Cl         3.21289       -0.76065        0.00000
C         -1.98960       -0.94418        0.00000
O         -3.11898       -0.46337        0.00000
O         -1.78252       -2.26024       -0.00000
H         -2.64488       -2.72011       -0.00000
O         -2.01337        1.94435       -0.00000
H         -2.75283        1.29693        0.00000
