30
id_1559_cb.log	Energy: -280520.5519574
C         -3.56663        0.04365        0.47559
H         -3.64985       -0.41169        1.46812
H         -4.53790        0.48638        0.24004
C         -3.12745       -1.02156       -0.56264
H         -3.71996       -0.95161       -1.47887
H         -3.27107       -2.03129       -0.16847
C         -1.63464       -0.73714       -0.85555
H         -1.52189       -0.21948       -1.81599
H         -1.03220       -1.64949       -0.89949
C         -1.18782        0.21942        0.25571
H         -1.01986       -0.37461        1.17156
C         -2.43316        1.07495        0.47894
H         -2.38657        1.66853        1.39774
H         -2.53796        1.76468       -0.36822
N         -0.01001        1.01311       -0.09620
H          0.18855        1.61775        0.70449
C          1.18786        0.19950       -0.30277
H          1.02420       -0.41443       -1.19899
C          2.43815        1.05030       -0.52478
H          2.41606        1.60218       -1.46892
H          2.50960        1.78126        0.29307
C          3.58303        0.03612       -0.43616
H          3.72543       -0.43790       -1.41298
H          4.53389        0.49944       -0.16047
C          3.11065       -1.01796        0.60137
H          3.68435       -0.95048        1.52967
H          3.25317       -2.03051        0.21382
C          1.61572       -0.72148        0.85492
H          1.48801       -0.16553        1.79356
H          1.00989       -1.62981        0.92602
