17
id_1731_ca.log	Energy: -262333.2867407
C          2.42074       -1.47417       -0.00000
H          2.23463       -2.54987        0.00004
H          3.01299       -1.21399        0.88331
H          3.01295       -1.21405       -0.88337
C          1.13850       -0.70283        0.00000
C         -0.10331       -1.33243        0.00000
H         -0.18113       -2.41383        0.00001
C         -1.24327       -0.53063       -0.00000
N         -1.15028        0.80881       -0.00001
C          0.08212        1.30201       -0.00000
N          1.23232        0.63777        0.00001
O          0.14419        2.65230        0.00000
H          1.08005        2.92198       -0.00002
C         -2.62100       -1.11517        0.00000
H         -2.58803       -2.20626       -0.00004
H         -3.17103       -0.77446       -0.88322
H         -3.17099       -0.77453        0.88328
