21
id_1696_cb.log	Energy: -206538.9920629
C         -2.67940        0.00000        0.25300
H         -2.66203       -0.00000        1.35703
H         -3.22617       -0.88718       -0.07875
H         -3.22617        0.88718       -0.07875
N         -1.33877       -0.00000       -0.31783
C         -0.62616       -1.19547        0.13837
H         -0.56694       -1.20998        1.24353
H         -1.19565       -2.07801       -0.16956
C          0.78924       -1.25636       -0.43884
H          1.30773       -2.14297       -0.06149
H          0.71447       -1.34632       -1.53066
C          1.54307       -0.00000       -0.08983
C          2.72702        0.00000        0.52171
H          3.23271        0.92778        0.77907
H          3.23271       -0.92778        0.77907
C          0.78924        1.25636       -0.43884
H          0.71447        1.34632       -1.53066
H          1.30773        2.14297       -0.06149
C         -0.62616        1.19547        0.13837
H         -1.19565        2.07801       -0.16956
H         -0.56694        1.20998        1.24353
