24
id_1073_cb.log	Energy: -384853.0429664
C         -4.40606        0.36468       -0.62789
H         -4.72120        1.08019        0.13931
H         -5.19629       -0.38176       -0.75138
H         -4.27721        0.89540       -1.57577
C         -3.11773       -0.31921       -0.21252
H         -2.79514       -0.99677       -1.01077
C         -3.26397       -1.06321        1.10533
H         -3.99454       -1.87062        0.99426
H         -3.62100       -0.37603        1.88031
H         -2.31853       -1.50185        1.43716
O         -2.13904        0.73294       -0.08605
C         -0.81029        0.42319       -0.06659
C         -0.28485       -0.85652       -0.27574
H         -0.92785       -1.71156       -0.44919
C          1.09810       -1.03778       -0.25646
H          1.49919       -2.03349       -0.41908
C          1.97385        0.02496       -0.02945
C          1.42949        1.29902        0.18156
H          2.09102        2.14111        0.36084
C          0.05707        1.50020        0.16370
H         -0.36651        2.48761        0.32373
C          3.47247       -0.19359       -0.01101
O          3.89929       -1.35937       -0.25005
O          4.20720        0.80360        0.24172
