27
id_141_ca.log	Energy: -279308.1541359
C         -1.74239        1.25998        0.97525
H         -1.78248        2.15753        0.34921
H         -0.80728        1.25646        1.54166
H         -2.57162        1.29998        1.68674
C         -1.89996        0.00000        0.13974
C         -1.74240       -1.26000        0.97523
H         -0.80729       -1.25649        1.54163
H         -1.78250       -2.15753        0.34917
H         -2.57163       -1.30000        1.68671
C         -3.21819        0.00001       -0.62428
H         -3.30761        0.89179       -1.25314
H         -4.04165        0.00001        0.09407
H         -3.30762       -0.89174       -1.25316
N         -0.80963        0.00000       -0.95173
H         -0.97765       -0.82235       -1.54811
C          0.59036        0.00000       -0.51681
C          1.23331        1.21581       -0.32232
H          0.70703        2.14853       -0.50346
C          2.56054        1.20842        0.09837
H          3.07714        2.14959        0.25328
C          3.22120       -0.00000        0.31179
H          4.25612       -0.00000        0.63763
C          2.56054       -1.20842        0.09837
H          3.07714       -2.14959        0.25328
C          1.23331       -1.21581       -0.32232
H          0.70703       -2.14852       -0.50346
H         -0.97764        0.82237       -1.54810
