23
id_1158_cb.log	Energy: -254366.3435122
C          2.23406        0.54434        1.11663
H          3.29977        0.77710        1.02067
H          2.12262       -0.24920        1.86412
H          1.72540        1.43530        1.50029
C          1.65719        0.07531       -0.22809
H          1.81152        0.87613       -0.96353
C          2.42854       -1.14936       -0.71930
H          2.00537       -1.54807       -1.64672
H          2.42758       -1.94925        0.02884
H          3.47199       -0.87815       -0.90728
C          0.15982       -0.15287       -0.11285
C         -0.38181       -1.42362        0.08678
H          0.28598       -2.27892        0.13620
C         -1.75480       -1.63196        0.21637
H         -2.14284       -2.63411        0.36791
C         -2.61525       -0.54000        0.14502
H         -3.68831       -0.67723        0.24168
C         -2.10180        0.73799       -0.04655
H         -2.76828        1.59552       -0.10030
C         -0.72267        0.94874       -0.17305
N         -0.24619        2.23978       -0.43571
H          0.66236        2.44087       -0.03327
H         -0.90952        2.96006       -0.16847
