27
id_1217_ca.log	Energy: -437057.0763719
C         -1.84397       -1.11733        1.86279
H         -1.49503       -2.14575        2.00131
H         -2.93684       -1.11699        1.93579
H         -1.44694       -0.51042        2.68344
Si        -1.28683       -0.44623        0.20857
C         -1.90991       -1.45067       -1.24197
H         -1.50672       -2.46872       -1.22348
H         -1.62895       -0.99545       -2.19842
H         -3.00240       -1.52194       -1.20980
C         -2.01022        1.31887        0.08200
H         -3.09628        1.29551       -0.03447
H         -1.78033        1.90555        0.97458
N         -1.46596        2.08698       -1.08527
H         -0.44767        2.20136       -1.01300
H         -1.87563        3.02627       -1.14427
C          0.57961       -0.24097        0.11363
C          1.35036       -0.94003       -0.82679
H          0.86919       -1.62953       -1.51701
C          2.73242       -0.76776       -0.89549
H          3.31190       -1.31946       -1.62964
C          3.36748        0.11493       -0.02449
H          4.44326        0.25244       -0.07804
C          2.61938        0.82445        0.91488
H          3.11135        1.51481        1.59344
C          1.23944        0.64662        0.98073
H          0.67021        1.20785        1.72045
H         -1.65933        1.61418       -1.97557
