25
id_1733_cb.log	Energy: -336015.5332580
C          4.04055       -0.00000       -0.39164
H          4.32200        0.88541        0.19041
H          4.63393        0.00000       -1.31184
H          4.32199       -0.88543        0.19039
C          2.54440        0.00001       -0.68967
H          2.28296       -0.87960       -1.29196
H          2.28297        0.87962       -1.29195
C          1.70050        0.00001        0.59285
H          1.97322        0.87668        1.19332
H          1.97322       -0.87666        1.19333
C          0.21507        0.00000        0.32818
C         -0.51868       -1.18514        0.17627
N         -1.82854       -1.19673       -0.08584
C         -2.47445       -0.00001       -0.21280
N         -1.82855        1.19672       -0.08584
C         -0.51870        1.18514        0.17627
C          0.14886        2.52661        0.32581
H          1.05296        2.59572       -0.28755
H          0.45047        2.69175        1.36705
H         -0.53845        3.32322        0.03465
O         -3.72991       -0.00001       -0.46058
C          0.14888       -2.52660        0.32581
H          0.45042       -2.69176        1.36707
H          1.05301       -2.59569       -0.28749
H         -0.53841       -3.32321        0.03459
