28
id_116_ca.log	Energy: -460517.5496417
C          3.39961       -0.63952       -0.79266
H          4.34365       -0.74899       -0.25174
H          3.38412        0.34467       -1.27067
H          3.35327       -1.40679       -1.57092
C          2.23446       -0.78568        0.16042
H          2.27457       -0.00956        0.93564
H          2.25569       -1.76371        0.65514
O          1.01164       -0.66477       -0.58451
Si        -0.42535       -0.52832        0.22412
C         -0.64988       -1.80264        1.54610
H         -0.48116       -2.80810        1.14742
H         -1.66648       -1.76387        1.95254
H          0.04858       -1.64004        2.37336
C         -1.69287       -0.68289       -1.17510
H         -1.40840       -0.07921       -2.03970
H         -1.78517       -1.71910       -1.50771
N         -3.06147       -0.23362       -0.76299
H         -3.73121       -0.32269       -1.53590
H         -3.06608        0.75037       -0.46862
O         -0.62571        0.95022        0.94478
C         -0.50447        2.17817        0.21194
H         -0.92058        2.05804       -0.79749
H         -1.11990        2.91402        0.73609
C          0.93793        2.64042        0.14362
H          0.99208        3.62158       -0.33766
H          1.54816        1.93910       -0.43392
H          1.35635        2.72501        1.15099
H         -3.42847       -0.78963        0.01830
