25
id_1369_cb.log	Energy: -289076.2252111
C         -3.11818       -0.63913        1.14074
H         -2.87512       -1.68235        1.36200
H         -4.01820       -0.62461        0.50069
H         -3.36010       -0.13412        2.07998
N         -1.97932        0.01328        0.50441
C         -2.33447        1.39717        0.21110
H         -2.67148        1.88731        1.12851
H         -3.14555        1.47049       -0.53571
H         -1.46928        1.94982       -0.16375
C         -1.66972       -0.70861       -0.72960
H         -1.45100       -1.74845       -0.46116
H         -2.54977       -0.72746       -1.39977
C         -0.48684       -0.13920       -1.51618
H         -0.32577       -0.79890       -2.37643
H         -0.72894        0.85040       -1.91512
C          0.78075       -0.06328       -0.70589
C          1.37722        1.15499       -0.38255
H          0.94351        2.09101       -0.72286
C          2.54211        1.16434        0.37831
H          3.01335        2.11039        0.63322
N          3.14616        0.06136        0.83370
C          2.56882       -1.10650        0.51793
H          3.06479       -2.00105        0.88618
C          1.40800       -1.22021       -0.23498
H          0.99949       -2.20245       -0.45590
