12
id_1473_ca.log	Energy: -285884.2331723
C          0.57257        1.25136       -0.06966
H          1.05706        2.22275       -0.13688
C         -0.75579        1.15039       -0.07102
H         -1.38637        2.02965       -0.14455
C         -1.42536       -0.16661        0.03920
O         -0.84285       -1.22634        0.18594
O         -2.75592       -0.06468       -0.03679
H         -3.15541       -0.95342        0.04367
C          1.50974        0.09282        0.06808
O          2.02063       -0.22434        1.12290
O          1.78411       -0.49137       -1.09789
H          2.42995       -1.21285       -0.95522
