24
id_1681_ca.log	Energy: -207602.6745812
C          2.51603       -1.06717        0.10456
H          2.54628       -1.13977        1.19750
H          3.42415       -0.55496       -0.22652
H          2.52535       -2.08154       -0.30625
C          1.27934       -0.29634       -0.34486
C          1.26359        1.13153        0.20390
H          1.34611        1.09167        1.29872
H          2.13328        1.68042       -0.17084
C         -0.02613        1.85161       -0.18542
H         -0.07078        1.98458       -1.27338
H         -0.07533        2.84611        0.26656
C         -1.24757        1.07126        0.26982
H         -2.18076        1.52895       -0.06261
H         -1.27188        0.94860        1.35670
N         -1.21860       -0.31887       -0.29882
C          0.03149       -1.04503        0.10721
H         -0.01044       -1.12944        1.19855
H         -0.02438       -2.04348       -0.33215
C         -2.43609       -1.08478        0.07884
H         -2.39035       -2.06680       -0.39108
H         -3.31244       -0.53693       -0.26666
H         -2.45031       -1.18199        1.16497
H          1.26297       -0.25021       -1.44294
H         -1.20528       -0.22953       -1.32322
