35
id_1641_ca.log	Energy: -422987.7550539
C         -3.94762        1.38974       -0.52433
H         -4.95089        1.79508       -0.37132
H         -3.86493        1.08301       -1.56937
H         -3.22233        2.18646       -0.32450
C         -3.74212        0.23361        0.43837
H         -4.35897       -0.62386        0.15765
C         -3.99675        0.62338        1.88410
H         -3.35788        1.46436        2.17373
H         -3.80989       -0.21583        2.56071
H         -5.03989        0.92895        1.99283
N         -2.31676       -0.26092        0.33936
H         -1.68609        0.52392        0.55980
C         -1.93208       -0.86828       -0.96738
H         -2.64599       -1.66959       -1.16342
H         -2.02144       -0.11131       -1.74484
C         -0.52343       -1.45160       -0.90111
C          0.57618       -0.42510       -0.66399
C          0.43735        0.91970       -1.03428
H         -0.47545        1.28537       -1.49490
C          1.48637        1.80594       -0.81487
H          1.37421        2.84814       -1.09697
C          2.68308        1.38642       -0.23637
H          3.48422        2.09746       -0.07479
C          2.82038        0.04522        0.12408
C          1.77023       -0.85259       -0.08987
H          1.91523       -1.88986        0.19581
O          3.94141       -0.48427        0.69109
C          5.03458        0.39632        0.91627
H          4.75617        1.20002        1.60572
H          5.39251        0.82695       -0.02455
H          5.82139       -0.21138        1.36251
O         -0.49027       -2.49972        0.05804
H         -0.17614       -2.14150        0.90541
H         -0.35494       -1.92683       -1.87421
H         -2.16782       -0.96779        1.07250
