26
id_1090_cb.log	Energy: -279023.4733684
C         -2.40139       -0.73641       -1.24540
H         -3.49712       -0.76622       -1.24982
H         -2.03669       -1.76827       -1.27522
H         -2.06908       -0.23093       -2.15884
C         -1.89632        0.00466        0.00276
C         -2.39215       -0.73113        1.25772
H         -3.48782       -0.76086        1.27045
H         -2.05305       -0.22182        2.16654
H         -2.02726       -1.76287        1.28914
C         -2.49619        1.41312        0.00195
H         -3.58911        1.34383        0.00454
H         -2.19737        1.97858       -0.88739
H         -2.19350        1.98140        0.88817
C         -0.36602        0.03346       -0.00306
C          0.37907        1.21612       -0.00409
H         -0.12338        2.17810        0.00077
C          1.77287        1.20743       -0.00729
H          2.32183        2.14591       -0.00640
C          2.48102        0.00210       -0.01041
C          1.74640       -1.19252       -0.00804
H          2.27669       -2.14171       -0.00806
C          0.35827       -1.16832       -0.00420
H         -0.17338       -2.11709        0.00072
N          3.87785       -0.01587       -0.08004
H          4.28507       -0.85159        0.32747
H          4.30600        0.81360        0.31862
