27
id_1653_cb.log	Energy: -326200.8690105
C         -3.04901        1.80735       -0.37451
H         -3.76205        2.17260        0.36795
H         -3.51694        1.86449       -1.36821
H         -2.17824        2.46987       -0.37030
N         -2.62332        0.45194       -0.02909
H         -3.45472       -0.13638        0.03637
C         -1.77231       -0.11852       -1.08550
H         -2.31939       -0.20632       -2.03678
H         -0.94766        0.58362       -1.25752
C         -1.21673       -1.47774       -0.67420
H         -0.65061       -1.90179       -1.51037
H         -2.04481       -2.16449       -0.45785
C         -0.30946       -1.41292        0.56686
C          0.91157       -0.54263        0.30850
C          1.92286       -1.00818       -0.53815
H          1.83977       -2.00260       -0.97204
C          3.03234       -0.21725       -0.82282
H          3.81182       -0.59502       -1.47785
C          3.14490        1.05609       -0.26346
H          4.00994        1.67424       -0.48331
C          2.14276        1.52640        0.58146
H          2.22373        2.51520        1.02330
C          1.03295        0.73028        0.86683
H          0.25863        1.09647        1.53442
O         -1.04354       -0.98624        1.70413
H         -1.63863       -0.27158        1.36969
H          0.04150       -2.42936        0.78307
