50
id_1984_cb.log	Energy: -604341.6969241
C          1.73498       -1.03568        2.85688
H          1.74981       -2.12699        2.76885
H          1.09148       -0.77602        3.70315
H          2.74946       -0.69579        3.08855
C          1.20934       -0.37510        1.57683
C         -0.19255       -0.91035        1.26753
H         -0.83430       -0.65326        2.11725
H         -0.18605       -2.00406        1.19215
C         -0.85384       -0.31895       -0.00532
C         -0.26023       -0.95147       -1.20114
N          0.09524       -1.49021       -2.16370
C         -2.35778       -0.66002       -0.10132
C         -2.98928       -1.53821        0.77804
H         -2.43709       -2.01640        1.57910
C         -4.35052       -1.81692        0.63608
H         -4.82936       -2.49949        1.33130
C         -5.08767       -1.22894       -0.38555
H         -6.14562       -1.44726       -0.49222
C         -4.45756       -0.35713       -1.27509
H         -5.02151        0.10562       -2.07897
C         -3.10423       -0.07704       -1.13279
H         -2.61605        0.60367       -1.82669
C         -0.65330        1.20002       -0.03969
C         -1.32236        1.97166        0.91594
H         -2.00103        1.49086        1.61666
C         -1.12391        3.34715        0.97550
H         -1.64683        3.93361        1.72465
C         -0.25907        3.97023        0.07505
H         -0.10437        5.04364        0.12092
C          0.39974        3.20759       -0.88472
H          1.07077        3.68236       -1.59411
C          0.20474        1.82683       -0.94190
H          0.73074        1.24104       -1.69001
N          2.10318       -0.46677        0.41698
C          2.60793       -1.81579        0.16205
H          3.27978       -2.15200        0.97399
H          1.76102       -2.51093        0.13184
C          3.37539       -1.86822       -1.15693
H          3.75016       -2.88528       -1.31529
H          2.68700       -1.63548       -1.97795
C          4.52386       -0.86071       -1.14708
H          5.25565       -1.15523       -0.38197
H          5.04612       -0.85638       -2.10964
C          3.98756        0.53040       -0.81365
H          4.80393        1.25533       -0.72634
H          3.32501        0.87283       -1.61962
C          3.19765        0.49950        0.49111
H          2.76509        1.48689        0.69145
H          3.89042        0.26702        1.32296
H          1.10336        0.69749        1.77810
