28
id_1039_cb.log	Energy: -232710.8113895
C         -3.81902        0.81514        0.64015
H         -4.82773        0.97812        0.24834
H         -3.36761        1.79631        0.82394
H         -3.91215        0.30613        1.60583
C         -2.96659       -0.00288       -0.32477
H         -2.90405        0.51303       -1.29177
H         -3.45042       -0.96863       -0.51942
C         -1.55471       -0.24760        0.20309
H         -1.61123       -0.78173        1.16259
H         -1.08240        0.72182        0.41694
C         -0.68985       -1.04463       -0.77285
H         -0.57067       -0.47029       -1.70164
H         -1.22474       -1.96015       -1.05616
C          0.68049       -1.43984       -0.21323
H          1.25532       -1.96110       -0.99019
H          0.53593       -2.15413        0.60752
C          1.52628       -0.28419        0.32478
C          2.87393       -0.80427        0.81139
H          3.45521       -1.19852       -0.02994
H          2.72600       -1.61157        1.53558
H          3.46361       -0.02387        1.30111
N          1.70884        0.73717       -0.71496
H          0.77546        1.00215       -1.02791
C          2.32799        1.95142       -0.18646
H          1.88312        2.28667        0.76465
H          2.22243        2.75853       -0.91529
H          3.39715        1.79716       -0.01900
H          1.00374        0.15089        1.19691
