33
id_1651_cb.log	Energy: -562290.3123561
C          4.82423       -0.28030        0.23129
H          5.36742        0.50985        0.75718
H          5.28114       -0.40525       -0.75817
H          4.94628       -1.21502        0.78627
C          3.35181        0.08249        0.08801
H          2.92882        0.20270        1.09397
C          3.18963        1.39950       -0.66983
H          3.79887        2.18041       -0.20355
H          2.15264        1.74680       -0.67385
H          3.52090        1.28243       -1.70903
N          2.66006       -1.06275       -0.53215
H          3.15377       -1.30013       -1.39228
C          1.25072       -0.84700       -0.85689
H          1.05368        0.03052       -1.48545
H          0.90164       -1.73177       -1.39980
C          0.44627       -0.72985        0.44594
C         -1.04043       -0.84803        0.16525
C         -1.59358       -2.12076        0.01499
H         -0.95132       -2.98550        0.14502
C         -2.94181       -2.29001       -0.28558
H         -3.34698       -3.29103       -0.39535
C         -3.76685       -1.18018       -0.44483
H         -4.81910       -1.30395       -0.67793
C         -3.23468        0.09646       -0.30115
H         -3.86949        0.96708       -0.41998
C         -1.88313        0.26118        0.00012
C         -1.35173        1.65644        0.17056
F         -0.93693        1.89394        1.42933
F         -2.26576        2.59229       -0.11583
F         -0.29100        1.89870       -0.62732
O          0.84763       -1.77037        1.32335
H          1.75761       -1.98667        1.03299
H          0.66307        0.23762        0.91526
