19
id_1186_cb.log	Energy: -559308.2271814
C          1.70365        1.86399        0.01732
H          2.02641        2.89985        0.03876
C          2.65509        0.85250        0.05475
H          3.71167        1.10003        0.10747
C          2.27639       -0.49950        0.01917
C          0.91087       -0.81186       -0.05279
H          0.58954       -1.84829       -0.08995
C         -0.01529        0.22248       -0.09070
C          0.34432        1.56712       -0.05607
H         -0.40442        2.35056       -0.09703
S         -1.74317       -0.18699       -0.12624
O         -2.43843        0.85936       -0.87348
O         -1.87852       -1.58093       -0.54386
N         -2.32716       -0.10924        1.41788
H         -2.23347        0.82996        1.80884
H         -1.88054       -0.79953        2.02337
N          3.22508       -1.50594        0.11240
H          2.93325       -2.39269       -0.28408
H          4.14834       -1.23767       -0.21069
