49
id_1431_ca.log	Energy: -627153.3271611
C          1.79379       -0.45002        2.79335
H          1.82765       -1.53727        2.90337
H          1.10782       -0.05300        3.54523
H          2.78496       -0.03705        2.99422
C          1.26910       -0.04380        1.42407
C         -0.07339       -0.72824        1.15549
H         -0.68481       -0.49872        2.03407
H          0.04864       -1.81600        1.12607
C         -0.89146       -0.25843       -0.08134
C         -0.24361       -0.78696       -1.29912
N          0.28861       -1.22513       -2.23076
C         -0.94408        1.27553       -0.11741
C         -0.20517        2.03660       -1.02266
H          0.40437        1.55130       -1.78121
C         -0.24216        3.43072       -0.96213
H          0.33397        4.01144       -1.67544
C         -1.01303        4.07004        0.00284
H         -1.04200        5.15401        0.04857
C         -1.75165        3.31073        0.91132
H         -2.35750        3.80096        1.66681
C         -1.71915        1.92232        0.85102
H         -2.30108        1.33445        1.55680
C         -2.31565       -0.85305       -0.09168
C         -2.76564       -1.75865        0.86714
H         -2.12178       -2.08913        1.67401
C         -4.06764       -2.25910        0.79861
H         -4.40770       -2.96038        1.55404
C         -4.92077       -1.86701       -0.22650
H         -5.93164       -2.25913       -0.27583
C         -4.46956       -0.96712       -1.19327
H         -5.12608       -0.65597       -1.99961
C         -3.17646       -0.46409       -1.12484
H         -2.82724        0.24040       -1.87679
N          2.29897       -0.32558        0.33839
C          3.43598        0.65788        0.35050
H          3.00726        1.66104        0.30671
H          3.98346        0.51862        1.28374
C          4.32855        0.38966       -0.84920
H          3.76911        0.56659       -1.77994
H          5.18432        1.06569       -0.81661
O          4.82822       -0.93590       -0.82713
C          3.76361       -1.86927       -0.88308
H          4.20198       -2.86824       -0.87835
H          3.19033       -1.73478       -1.81240
C          2.84649       -1.72350        0.31978
H          2.01387       -2.42726        0.26393
H          3.40045       -1.86633        1.24892
H          1.14011        1.04140        1.38584
H          1.83403       -0.18587       -0.57000
