14
id_1075_cb.log	Energy: -1793837.8572419
C         -2.85667       -0.27772        0.00142
H         -3.94223       -0.27954        0.00551
C         -2.15459       -1.48335        0.00618
H         -2.67785       -2.43314        0.01192
C         -0.76415       -1.45621        0.00583
H         -0.19125       -2.37744        0.01350
C         -0.09626       -0.23769       -0.00294
C         -0.77689        0.98837       -0.00844
C         -2.18091        0.93419       -0.00336
H         -2.73143        1.87108       -0.00417
N         -0.11771        2.20699       -0.08141
H          0.81385        2.20833        0.31924
H         -0.67084        2.98397        0.26426
Br         1.80573       -0.23508       -0.00093
