18
id_1802_cb.log	Energy: -461630.9075339
C          0.95764        3.67106        0.00754
H          1.58133        3.65499       -0.88850
H          1.57956        3.64794        0.90465
H          0.36634        4.58915        0.01059
S         -0.24842        2.32171        0.00114
C          0.79653        0.88156       -0.00361
C          2.19577        0.95570       -0.00332
H          2.68879        1.92102        0.00199
C          2.98759       -0.18438       -0.00651
H          4.06946       -0.08720       -0.00578
C          2.41055       -1.45900       -0.00981
C          1.01277       -1.54974       -0.00684
H          0.54366       -2.52855       -0.00575
C          0.23379       -0.40043       -0.00510
I         -1.88049       -0.67292        0.00093
N          3.19653       -2.60755       -0.07794
H          2.74560       -3.43052        0.30804
H          4.12235       -2.48514        0.31868
