29
id_100_cb.log	Energy: -480612.9154503
C          0.14944        0.66236        1.83451
H         -0.00505       -0.22682        2.45591
H         -0.56724        1.42610        2.14579
H          1.15679        1.04709        2.02111
C         -0.03704        0.29320        0.35594
C          0.96572       -0.80164       -0.02568
H          0.79153       -1.16171       -1.04665
H          0.86788       -1.66671        0.63838
C          2.40407       -0.35451        0.01367
O          2.79918        0.79644        0.03476
O          3.24024       -1.40065       -0.01022
C          4.64295       -1.09243       -0.03432
H          4.88370       -0.51134       -0.92674
H          5.15193       -2.05430       -0.05733
H          4.91944       -0.53557        0.86311
C         -1.47955       -0.18679        0.14942
C         -2.52589        0.73330        0.32216
H         -2.29516        1.76547        0.57665
C         -3.85566        0.35148        0.16806
H         -4.64500        1.08586        0.30274
C         -4.17371       -0.96884       -0.15881
H         -5.21032       -1.27050       -0.27825
C         -3.14657       -1.89272       -0.33002
H         -3.37662       -2.92384       -0.58394
C         -1.81150       -1.50503       -0.17943
H         -1.03747       -2.25215       -0.32143
C          0.15606        1.52044       -0.58441
O          0.14861        2.67302       -0.07778
O          0.26644        1.27185       -1.81876
