23
id_1591_cb.log	Energy: -254363.5690318
C         -2.73798       -1.62503       -0.28097
H         -2.72819       -2.30010        0.58155
H         -2.47449       -2.22154       -1.16046
H         -3.75857       -1.25621       -0.41116
C         -1.76787       -0.48807       -0.08734
C         -2.20809        0.83290       -0.00692
H         -3.27016        1.04932       -0.08834
C         -1.29503        1.87205        0.18145
H         -1.64876        2.89686        0.24814
C          0.06292        1.59722        0.28914
H          0.77459        2.40651        0.43903
C          0.52929        0.27890        0.20991
C         -0.39519       -0.74680        0.02353
H         -0.05268       -1.77829       -0.03231
C          2.02803        0.01445        0.28198
C          2.67069        0.30883       -1.07221
H          2.46026        1.33298       -1.39247
H          2.27103       -0.37495       -1.83065
H          3.75480        0.17259       -1.01812
N          2.41650       -1.33343        0.70281
H          2.12521       -1.98751       -0.02482
H          1.86741       -1.58881        1.52385
H          2.44340        0.71647        1.01465
