27
id_1467_cb.log	Energy: -323815.5697427
C          4.22767       -1.57058       -0.04174
H          3.60652       -2.34510       -0.50487
H          4.94232       -2.06609        0.62251
H          4.79553       -1.07901       -0.83931
C          3.36634       -0.56220        0.71200
H          4.00823        0.18794        1.19136
H          2.82441       -1.06928        1.52068
C          2.36255        0.14362       -0.19672
H          1.72676       -0.61116       -0.68019
H          2.90190        0.66086       -1.00326
C          1.48775        1.14512        0.55287
H          2.12300        1.87585        1.06963
H          0.91029        0.62249        1.32583
C          0.53075        1.90972       -0.36098
H          1.10014        2.48180       -1.09909
H         -0.06232        2.62084        0.21679
N         -0.38078        1.05154       -1.11033
H          0.03599        0.55210       -1.88783
C         -1.35884        0.33017       -0.48679
N         -1.83624       -0.73152       -1.16994
C         -2.83418       -1.39573       -0.59358
H         -3.21969       -2.25154       -1.14294
C         -3.37088       -1.04448        0.64043
H         -4.18066       -1.59931        1.09588
C         -2.79348        0.05819        1.25286
H         -3.14442        0.40181        2.22335
N         -1.79355        0.75640        0.71187
