19
id_1397_ca.log	Energy: -182177.7819524
C         -2.48846        0.10015        0.04123
H         -2.83162       -0.38310        0.96306
H         -2.87341       -0.48129       -0.80410
H         -2.90650        1.10703       -0.00322
C         -0.99850        0.17044        0.00503
C         -0.23644        1.25478       -0.09029
H         -0.75481        2.20590       -0.17892
C          1.26513        1.26847       -0.08373
H          1.61893        1.53751       -1.08705
H          1.61232        2.05921        0.58841
C          1.83753       -0.08259        0.33750
H          1.75995       -0.20846        1.42336
H          2.89367       -0.16068        0.07013
C          1.07845       -1.20239       -0.34532
H          1.45783       -2.19234       -0.09427
H          1.06195       -1.07887       -1.42995
N         -0.35331       -1.16182        0.10506
H         -0.89854       -1.83561       -0.44925
H         -0.41289       -1.48983        1.07978
