28
id_1188_cb.log	Energy: -407308.9065085
C         -1.95320        2.50274        0.03043
H         -2.73497        2.43122        0.79471
H         -2.45422        2.69139       -0.92800
H         -1.34580        3.37500        0.26931
C         -1.14264        1.23267       -0.00255
C          0.25200        1.23925       -0.03393
C          0.90708       -0.00265        0.00154
C          0.24867       -1.24287        0.04571
C         -1.14678       -1.23263        0.01463
C         -1.83458        0.00149       -0.00537
N         -3.21468        0.00848        0.03768
H         -3.67713       -0.84086       -0.26086
H         -3.66770        0.83821       -0.32495
C         -1.96639       -2.49710        0.00606
H         -2.59892       -2.56842        0.89927
H         -1.35239       -3.39458       -0.04705
H         -2.63499       -2.51553       -0.86364
C          0.99771       -2.54754        0.19272
H          1.09387       -3.06114       -0.76977
H          0.46350       -3.21084        0.87493
H          2.00157       -2.40618        0.59213
N          2.35986       -0.00299       -0.00963
O          2.95350        0.75578        0.74722
O          2.94150       -0.76058       -0.77714
C          0.99943        2.54519       -0.17507
H          0.44028        3.22777       -0.81713
H          1.98657        2.41056       -0.61733
H          1.13639        3.03194        0.79648
