17
id_1523_ca.log	Energy: -309354.9976782
C         -2.31752        1.12484       -0.00000
H         -3.08262        1.89518       -0.00000
C         -2.70628       -0.24319       -0.00000
H         -3.76236       -0.49509       -0.00000
C         -1.76422       -1.23870       -0.00000
H         -2.04319       -2.28819       -0.00000
C         -0.38210       -0.90617       -0.00001
C         -0.00064        0.45879        0.00000
C         -0.99151        1.47613        0.00000
H         -0.68676        2.51761        0.00001
C          1.38935        0.70353        0.00002
C          2.23639       -0.38858        0.00000
H          3.31422       -0.26217       -0.00001
N          1.79075       -1.66305       -0.00001
N          0.51955       -1.93125        0.00001
O          1.81492        1.98117       -0.00001
H          2.78845        2.02353       -0.00002
