18
id_1425_cb.log	Energy: -342275.3224304
C          0.36948        2.69333        0.00299
H          0.36321        3.77126       -0.12940
C          1.56256        2.03119        0.28882
H          2.49021        2.59044        0.37966
C          1.57315        0.64658        0.46252
C          0.37976       -0.07440        0.35374
H          0.38680       -1.15215        0.49005
C         -0.80365        0.60029        0.07131
C         -0.82596        1.98228       -0.10712
H         -1.75477        2.49911       -0.32495
I         -2.61128       -0.49739       -0.09272
C          2.87438       -0.08918        0.71331
C          3.40650       -0.64909       -0.62933
O          3.46008       -1.90478       -0.72300
O          3.72713        0.18739       -1.50883
O          2.71395       -1.13944        1.64820
H          2.86830       -1.96013        1.13758
H          3.61734        0.62161        1.09254
