21
id_183_cb.log	Energy: -336901.7254954
C          3.25777        2.03839        0.00003
H          2.56296        2.88249       -0.00065
H          3.90210        2.12387       -0.88159
H          3.90097        2.12441        0.88243
C          2.51872        0.72489       -0.00002
C          3.22931       -0.48594       -0.00001
H          4.31707       -0.46577       -0.00002
C          2.55510       -1.70319        0.00002
H          3.11492       -2.63417        0.00002
C          1.15991       -1.73050        0.00003
H          0.63137       -2.68069        0.00004
C          0.42739       -0.53720        0.00001
C          1.12607        0.68299       -0.00002
H          0.57663        1.62137       -0.00004
C         -1.04323       -0.61411        0.00001
H         -1.45581       -1.62302        0.00003
C         -1.89938        0.41676       -0.00002
H         -1.55373        1.44783       -0.00004
C         -3.39251        0.23953       -0.00002
O         -3.87624       -0.92888        0.00000
O         -4.07769        1.30561       -0.00004
