41
id_1034_ca.log	Energy: -331631.4902253
C          7.48971       -0.19753        0.17880
H          8.37496        0.42132        0.00361
H          7.56372       -1.08003       -0.46607
H          7.52084       -0.54192        1.21830
C          6.20267        0.57226       -0.10023
H          6.20310        0.93068       -1.13756
H          6.15947        1.46483        0.53695
C          4.95432       -0.27399        0.13685
H          4.94987       -0.63242        1.17544
H          4.99489       -1.16794       -0.50066
C          3.65996        0.48567       -0.14115
H          3.66132        0.84283       -1.17938
H          3.61376        1.37668        0.49873
C          2.41928       -0.37265        0.09635
H          2.40196       -0.72140        1.13651
H          2.45330       -1.26085       -0.54708
C          1.15111        0.40900       -0.19289
H          1.10530        0.73880       -1.23318
H          1.05131        1.27823        0.46109
N         -0.06064       -0.43718        0.03926
H         -0.04925       -0.78031        1.00824
C         -1.35482        0.26872       -0.21337
H         -1.36240        1.14582        0.43774
H         -1.33076        0.59842       -1.25448
C         -2.53268       -0.64760        0.06175
H         -2.45533       -1.54036       -0.57124
H         -2.49668       -0.98167        1.10635
C         -3.85629        0.06590       -0.20761
H         -3.89973        0.97826        0.39977
H         -3.89119        0.38351       -1.25869
C         -5.06022       -0.82462        0.09528
H         -4.93997       -1.77617       -0.43839
H         -5.06740       -1.06541        1.16728
C         -6.40057       -0.19716       -0.29165
H         -6.41145       -0.01111       -1.37338
H         -7.19996       -0.92030       -0.09253
C         -6.70129        1.10203        0.45226
H         -5.99523        1.89420        0.18424
H         -6.64002        0.95254        1.53646
H         -7.70728        1.46501        0.22042
H         -0.00979       -1.27112       -0.55974
