15
id_1937_ca.log	Energy: -5104337.7448766
C         -1.15431       -1.21606       -0.00358
H         -1.69702       -2.15461        0.00165
C         -1.82702        0.00000       -0.00018
C         -1.15431        1.21606       -0.00358
H         -1.69702        2.15461        0.00165
C          0.23405        1.19557       -0.01329
C          0.94820       -0.00000       -0.02293
C          0.23405       -1.19557       -0.01329
Br         1.17640       -2.82892       -0.01841
C          2.45016       -0.00000       -0.06692
O          3.08251       -0.00000       -1.09925
O          2.98472        0.00000        1.14999
H          3.96158        0.00000        1.08032
Br         1.17641        2.82892       -0.01841
Br        -3.70968        0.00000        0.01548
