17
id_1525_ca.log	Energy: -309354.3933559
C         -1.82413        1.16176        0.00000
H         -2.67726        1.83536       -0.00000
C         -0.54728        1.64664        0.00000
H         -0.35111        2.71468       -0.00000
C          0.55463        0.74577        0.00000
C          0.30994       -0.65442        0.00000
C          1.45594       -1.47256        0.00000
H          1.37073       -2.55527        0.00000
C          2.68269       -0.85661       -0.00000
H          3.60582       -1.42502       -0.00000
N          2.84751        0.49323       -0.00000
N          1.80771        1.27250       -0.00000
C         -1.01931       -1.14211        0.00001
H         -1.21020       -2.21129        0.00000
C         -2.05950       -0.24520        0.00001
O         -3.33375       -0.72800       -0.00001
H         -3.97246        0.00584       -0.00001
