24
id_136_ca.log	Energy: -207611.2758497
C         -2.22800        0.00001       -0.78453
H         -2.07787       -0.00000       -1.86686
H         -2.80323        0.89137       -0.51309
H         -2.80324       -0.89134       -0.51308
C         -0.87357        0.00000       -0.09337
C         -0.07591        1.26584       -0.41726
H         -0.02016        1.32194       -1.51098
H         -0.63937        2.14340       -0.07804
C          1.34270        1.25972        0.15847
H          1.86777        2.15761       -0.18173
H          1.31151        1.31928        1.25533
C          2.10109       -0.00000       -0.26263
H          2.21805       -0.00000       -1.35472
H          3.10640       -0.00001        0.17058
C          1.34269       -1.25972        0.15847
H          1.31149       -1.31927        1.25533
H          1.86776       -2.15761       -0.18172
C         -0.07591       -1.26583       -0.41728
H         -0.63937       -2.14340       -0.07808
H         -0.02014       -1.32192       -1.51100
N         -1.16362       -0.00001        1.39663
H         -1.71119        0.82999        1.65615
H         -0.31048        0.00003        1.96824
H         -1.71112       -0.83006        1.65615
