11
id_1974_cb.log	Energy: -202644.7535292
C          1.19717        0.26576        0.00000
H          2.16100        0.76889        0.00000
C          1.13563       -1.11605       -0.00000
H          2.06152       -1.68878       -0.00000
N          0.00000       -1.84124       -0.00000
C         -1.13563       -1.11605       -0.00000
H         -2.06152       -1.68877       -0.00000
C         -1.19717        0.26575        0.00000
H         -2.16100        0.76888        0.00000
C         -0.00000        1.04288        0.00000
O         -0.00001        2.33434        0.00000
