30
id_1555_cb.log	Energy: -766871.7362849
C         -0.27314        3.09579       -0.65139
H          0.20702        2.62756       -1.51627
H          0.42672        3.81092       -0.20969
H         -1.15878        3.63911       -0.99201
C         -0.64601        2.05772        0.37928
H         -1.14995        2.50336        1.24072
H          0.23523        1.51536        0.73296
O         -1.56785        1.12753       -0.24965
P         -1.79913       -0.32795        0.40247
O         -1.35388       -0.40921        1.82988
C         -3.53873       -0.65019        0.11331
H         -3.79926       -0.43005       -0.92413
H         -4.11495       -0.00664        0.78426
H         -3.76244       -1.69641        0.33871
S         -0.82737       -1.65809       -0.90487
C          0.77147       -0.78862       -1.13410
H          1.20263       -1.23345       -2.03427
H          0.55249        0.25993       -1.35197
C          1.71528       -0.97030        0.04878
H          1.86249       -2.04310        0.20829
H          1.25299       -0.56742        0.96894
N          3.02349       -0.36266       -0.19306
C          2.92761        1.09391       -0.12970
H          3.91547        1.53139       -0.29814
H          2.56240        1.44064        0.85325
H          2.25689        1.47701       -0.90309
C          3.94049       -0.80714        0.85310
H          4.05144       -1.89415        0.81811
H          3.58869       -0.52662        1.86105
H          4.92326       -0.35381        0.69821
