18
id_1494_ca.log	Energy: -876076.9868170
C          3.13568       -1.12904        0.00000
H          4.21582       -1.22522       -0.00000
C          2.53148        0.10215       -0.00000
H          3.12479        1.01086       -0.00000
C          1.11600        0.17889       -0.00000
C          0.36171        1.38444       -0.00000
C         -1.00724        1.37038       -0.00000
H         -1.57292        2.29637        0.00000
C         -1.69651        0.13680        0.00000
C         -1.02217       -1.06027       -0.00000
C          0.40607       -1.04855        0.00000
N          1.01511       -2.26348       -0.00000
C          2.33111       -2.29236        0.00000
H          2.79762       -3.27371        0.00000
O         -1.68597       -2.23616       -0.00000
H         -1.01873       -2.95277        0.00001
Cl        -3.43372        0.14073        0.00000
Cl         1.19247        2.91947        0.00000
