27
id_1697_cb.log	Energy: -255854.9280565
C         -3.60037       -0.70071        0.29026
H         -3.91854        0.15499        0.89599
H         -4.01551       -1.60015        0.75197
H         -4.07819       -0.59219       -0.69221
C         -2.09887       -0.80765        0.19052
H         -1.67206       -1.78045        0.40891
C         -1.29812        0.21600       -0.15458
C         -1.87137        1.58350       -0.44162
H         -1.90029        2.21247        0.45596
H         -2.89383        1.50008       -0.81685
H         -1.27576        2.10553       -1.19541
N          0.10703        0.10845       -0.32316
C          0.84997        1.12091        0.44796
H          0.73292        0.92407        1.52926
H          0.42201        2.10466        0.24774
C          2.33190        1.12480        0.09382
H          2.83842        1.88227        0.70113
H          2.44653        1.41437       -0.95827
C          2.94191       -0.25633        0.31560
H          3.99409       -0.27279        0.01348
H          2.90571       -0.49899        1.38643
C          2.13665       -1.29292       -0.46295
H          2.50246       -2.30569       -0.26419
H          2.24661       -1.10965       -1.53903
C          0.65754       -1.22643       -0.09744
H          0.52476       -1.52792        0.95816
H          0.09593       -1.93674       -0.71040
