29
id_167_cb.log	Energy: -303673.1414191
C         -3.14058       -1.43659       -0.45031
H         -3.83466       -2.17599       -0.83798
C         -3.29167       -0.08981       -0.78251
H         -4.10686        0.22254       -1.42864
C         -2.40103        0.85706       -0.28425
H         -2.52582        1.90625       -0.54366
C         -1.34573        0.48051        0.55568
C         -1.20615       -0.87135        0.88160
H         -0.39483       -1.17873        1.53753
C         -2.09518       -1.82445        0.38409
H         -1.97032       -2.86984        0.65079
C         -0.36639        1.51514        1.05666
H         -0.91546        2.34838        1.51063
H          0.25508        1.07658        1.84494
C          0.52470        2.07327       -0.06515
H         -0.10948        2.60149       -0.78796
H          1.20120        2.82158        0.36654
C          1.34668        1.01307       -0.79967
H          1.91952        1.50330       -1.59757
H          0.67126        0.30280       -1.29604
C          2.31110        0.24246        0.10026
H          1.75248       -0.34653        0.84032
H          2.93539        0.94971        0.66571
C          3.21467       -0.70013       -0.68793
H          3.79040       -0.12365       -1.42094
H          2.59540       -1.40006       -1.26070
N          4.15845       -1.48203        0.11821
H          3.61469       -1.99671        0.81164
H          4.71027       -0.82198        0.66715
