18
id_1912_cb.log	Energy: -335546.4504997
C          0.01598        2.58211        0.08905
H         -0.69545        2.69865        0.91022
H         -0.51231        2.84570       -0.83135
H          0.83358        3.29417        0.23117
C          0.57917        1.18183        0.02810
C          1.97116        1.05655        0.01274
H          2.58010        1.95583        0.03796
C          2.58813       -0.19435       -0.03152
H          3.67230       -0.26461       -0.04849
C          1.82194       -1.34850       -0.04332
H          2.27360       -2.33585       -0.06608
C          0.42759       -1.24731       -0.01468
C         -0.22039        0.01213        0.00333
C         -1.73435        0.05613       -0.01614
O         -2.34962       -1.05641        0.16080
O         -2.32927        1.13871       -0.21022
O         -0.27208       -2.41410       -0.00955
H         -1.23950       -2.13101        0.07294
