13
id_1464_cb.log	Energy: -237383.5703260
C         -2.50507        0.78441        0.00000
H         -3.05818        0.44555        0.88267
H         -3.05818        0.44555       -0.88267
H         -2.47742        1.87659        0.00000
C         -1.12265        0.20124        0.00000
C          0.00000        0.99515        0.00000
H         -0.07820        2.07843        0.00000
C          1.29509        0.38541        0.00000
N          1.35523       -0.98439        0.00000
C          0.20036       -1.64368        0.00000
H          0.27964       -2.72996        0.00000
N         -1.03838       -1.15760        0.00000
O          2.37100        1.06783        0.00000
