36
id_1042_ca.log	Energy: -363442.7345895
C          2.20963       -0.96181        1.57472
H          1.77019       -0.26074        2.28321
H          3.21246       -1.21668        1.93804
H          1.60289       -1.87552        1.58753
C          2.27121       -0.38205        0.18531
N          2.76801       -1.00731       -0.81517
O          3.27423       -2.28220       -0.57448
H          3.16389       -2.51659        0.36557
C          1.72806        1.01791       -0.06272
C          1.84764        1.42305       -1.53401
H          1.32852        0.72797       -2.19836
H          2.89550        1.46160       -1.84547
H          1.41357        2.41974       -1.66739
C          2.54591        2.00884        0.78227
H          2.48228        1.78523        1.85194
H          2.16453        3.02422        0.62880
H          3.60069        1.99093        0.48802
C          0.25148        1.08386        0.38825
H          0.19628        0.94364        1.47565
H         -0.10598        2.10392        0.19331
C         -0.68063        0.08001       -0.28737
H         -0.70035        0.25066       -1.37104
H         -0.30256       -0.94089       -0.13754
C         -2.10538        0.16476        0.25716
H         -2.47050        1.19328        0.12989
H         -2.09792       -0.03678        1.33672
C         -3.04252       -0.82530       -0.43356
H         -2.62247       -1.83485       -0.36144
H         -3.12298       -0.59112       -1.50261
C         -4.43205       -0.89012        0.17312
H         -4.39939       -1.08801        1.24550
H         -5.05047       -1.64500       -0.31189
N         -5.15499        0.41317        0.00474
H         -5.22030        0.66813       -0.98785
H         -4.67430        1.17865        0.49036
H         -6.10857        0.35988        0.37885
