22
id_1309_cb.log	Energy: -405048.5037354
C         -3.31624        0.33007       -0.06362
H         -4.37495        0.56849       -0.08118
C         -2.89990       -1.02153       -0.12350
H         -3.64235       -1.80967       -0.19629
C         -1.56755       -1.34903       -0.09414
H         -1.27109       -2.38796       -0.14925
C         -0.57834       -0.33134       -0.00528
C         -0.99306        1.03541        0.02320
C         -2.38482        1.33168        0.00308
H         -2.68824        2.37423        0.03354
C         -0.04449        2.08482        0.05565
H         -0.40347        3.11055        0.08485
C          1.31397        1.83722        0.04125
C          1.74803        0.48795        0.00389
H          2.80920        0.26195        0.00535
C          0.83326       -0.53065       -0.00216
N          1.40325       -1.87853        0.02014
O          0.80394       -2.75592        0.62283
O          2.47236       -2.06156       -0.54222
N          2.25773        2.84891        0.13505
H          3.14972        2.62534       -0.29319
H          1.91878        3.75668       -0.16530
