20
id_1812_cb.log	Energy: -380515.2391272
C          3.60293       -1.16745        0.01628
H          4.64243       -0.84263        0.02092
H          3.40930       -1.77768       -0.87091
H          3.39050       -1.74585        0.92047
O          2.82363        0.02457       -0.01333
C          1.47665       -0.10697       -0.01161
C          0.80077       -1.32336       -0.00525
H          1.35044       -2.25650       -0.00316
C         -0.59176       -1.35034       -0.00377
H         -1.13025       -2.28898       -0.00171
C         -1.26822       -0.14156       -0.00272
C         -0.61538        1.09261       -0.00282
H         -1.18174        2.01661        0.00379
C          0.77089        1.12480       -0.00990
N          1.48837        2.31069       -0.08122
H          2.41046        2.24972        0.33720
H          0.97439        3.11371        0.26522
N         -2.71984       -0.15371        0.00357
O         -3.29755       -1.23309        0.01035
O         -3.31365        0.91680        0.00179
