21
id_1458_cb.log	Energy: -274511.1455120
C          2.64172       -1.73996       -0.04174
H          2.62951       -2.39025        0.83835
H          3.58620       -1.19321       -0.06531
H          2.58215       -2.38365       -0.92479
C          1.46965       -0.80408       -0.00707
C          1.64623        0.58065       -0.01325
H          2.63591        1.02094       -0.04161
C          0.50297        1.37151        0.00970
N         -0.72505        0.83594        0.04163
C         -0.78832       -0.50448        0.05489
N          0.25615       -1.35711        0.02690
N         -2.02168       -1.07383        0.12869
H         -2.04343       -2.06254       -0.08117
C         -3.23198       -0.31055       -0.10229
H         -4.07915       -0.99457       -0.05326
H         -3.23232        0.18385       -1.08056
H         -3.35871        0.45458        0.66650
C          0.58356        2.86920       -0.00350
H          0.04803        3.26582       -0.87165
H          1.61929        3.21192       -0.03842
H          0.10362        3.27848        0.89094
