20
id_1772_cb.log	Energy: -837628.1603172
C          2.85525       -0.14982        1.55075
H          2.26845       -0.87756        2.11401
H          2.70645        0.85908        1.93962
H          3.91537       -0.41478        1.56150
S          2.32452       -0.18753       -0.14301
O          3.05775        0.85909       -0.87333
O          2.43060       -1.57391       -0.62629
C          0.61905        0.25775       -0.10491
C          0.25938        1.60683       -0.07085
H          1.02012        2.38053       -0.10445
C         -1.07644        1.95156       -0.00989
H         -1.37284        2.99571        0.00924
C         -2.08689        0.96866        0.02289
C         -1.67924       -0.38069       -0.01337
C         -0.34604       -0.74464       -0.07404
H         -0.06521       -1.79258       -0.10611
Cl        -2.90122       -1.62935        0.02038
N         -3.40082        1.32387        0.14086
H         -4.09637        0.65751       -0.17158
H         -3.61900        2.28523       -0.09311
