23
id_1195_cb.log	Energy: -254371.4872794
C          3.24296        0.00000        0.00549
H          3.64646       -0.88628       -0.49305
H          3.62790       -0.00006        1.03218
H          3.64646        0.88635       -0.49294
C          1.73539        0.00000       -0.01610
C          1.01222        1.19410       -0.01174
H          1.54760        2.14218       -0.01940
C         -0.38188        1.21794        0.00109
C         -1.08616       -0.00000        0.00575
C         -0.38187       -1.21794        0.00109
C          1.01223       -1.19409       -0.01174
H          1.54760       -2.14217       -0.01940
C         -1.13833       -2.51957        0.01031
H         -1.77208       -2.62598       -0.87950
H         -1.79986       -2.59117        0.88206
H         -0.45061       -3.36816        0.03392
N         -2.48609       -0.00000        0.08335
H         -2.91282       -0.82999       -0.31525
H         -2.91282        0.82996       -0.31529
C         -1.13834        2.51957        0.01031
H         -1.77208        2.62598       -0.87951
H         -0.45062        3.36816        0.03394
H         -1.79988        2.59115        0.88205
