18
id_1481_ca.log	Energy: -299310.8058378
C          1.85829        1.16213        0.00000
H          2.71506        1.83109        0.00000
C          0.57846        1.65158        0.00000
H          0.39767        2.72346       -0.00001
C         -0.52765        0.76178       -0.00000
C         -1.86853        1.22209       -0.00001
H         -2.05049        2.29592        0.00001
N         -2.92372        0.43484        0.00001
C         -2.69200       -0.91251        0.00001
H         -3.57867       -1.53925        0.00001
C         -1.44439       -1.47895       -0.00001
H         -1.32956       -2.55910       -0.00000
C         -0.29772       -0.63979       -0.00000
C          1.02935       -1.13217       -0.00000
H          1.21910       -2.20190        0.00001
C          2.07884       -0.24193        0.00001
O          3.35113       -0.74175       -0.00000
H          3.99593       -0.01354       -0.00002
