18
id_1787_cb.log	Energy: -1031666.2448165
C          2.06985        2.77891        0.00204
H          1.51572        3.06344       -0.89483
H          3.03414        3.29116        0.00022
H          1.51818        3.06543        0.89978
S          2.46258        1.01241        0.00307
C          0.84664        0.27944        0.00109
C         -0.33936        1.01503        0.00402
H         -0.32308        2.09873        0.00942
C         -1.57151        0.37558       -0.00135
C         -1.69836       -1.01931       -0.00410
C         -0.50567       -1.75539       -0.00211
H         -0.55330       -2.83996       -0.00058
C          0.72204       -1.11639       -0.00270
Cl         2.16023       -2.11039       -0.00085
N         -2.92743       -1.65394       -0.07752
H         -3.69219       -1.14613        0.35433
H         -2.90153       -2.61767        0.23864
Cl        -3.02193        1.35255       -0.00473
