18
id_1493_ca.log	Energy: -587695.0896361
C          3.39577        0.16046       -0.00000
H          4.46973        0.31233       -0.00000
C          2.52174        1.21797       -0.00000
H          2.87634        2.24536       -0.00000
C          1.12586        0.96578       -0.00000
C          0.14133        1.98932        0.00000
H          0.45419        3.02909       -0.00000
C         -1.19018        1.65954       -0.00000
H         -1.95480        2.43019        0.00000
C         -1.59139        0.30247        0.00000
C         -0.66847       -0.71646       -0.00000
C          0.72180       -0.39089       -0.00000
N          1.59183       -1.43738        0.00000
C          2.87901       -1.15798        0.00000
H          3.56092       -2.00444       -0.00000
O         -1.05120       -2.01544       -0.00000
H         -0.23561       -2.55677       -0.00000
Cl        -3.28923       -0.08541        0.00000
