17
id_1503_cb.log	Energy: -299017.7789358
C         -2.11845        1.85045        0.00000
H         -2.71638        2.75650        0.00000
C         -0.74725        1.89815        0.00000
H         -0.21834        2.84879        0.00000
C         -0.00000        0.68731        0.00000
C          1.41371        0.65630       -0.00000
H          1.96079        1.59763       -0.00000
C          2.13076       -0.55004       -0.00000
C          1.33993       -1.76427       -0.00000
H          1.87966       -2.70924       -0.00000
C         -0.02808       -1.75392        0.00000
H         -0.59203       -2.68401        0.00000
C         -0.74986       -0.52691        0.00000
N         -2.11407       -0.55961        0.00000
C         -2.76165        0.58896        0.00000
H         -3.84793        0.53788        0.00000
O          3.43226       -0.61830       -0.00000
