60
id_18_cb.log	Energy: -1419244.4598820
C         -1.35947       -1.75182       -2.67744
H         -0.66206       -1.66586       -3.51453
H         -2.02648       -0.88265       -2.68721
H         -1.98609       -2.63688       -2.83609
C         -0.60974       -1.84855       -1.37881
C          0.77702       -1.87247       -1.32965
H          1.33599       -1.79843       -2.26210
C          1.47426       -1.94441       -0.11419
C          0.75038       -2.05991        1.06932
H          1.27458       -2.13354        2.01942
C         -0.64666       -2.04955        1.05663
H         -1.19108       -2.13034        1.99094
C         -1.31687       -1.90448       -0.15855
O         -2.66797       -1.79692       -0.27637
C         -3.45132       -1.78589        0.90692
H         -3.42178       -2.77105        1.39138
H         -3.07461       -1.04209        1.61602
C         -4.90529       -1.45360        0.56161
O         -5.28003       -1.53342       -0.63343
O         -5.62469       -1.15089        1.55412
C          2.96842       -1.80931       -0.08919
H          3.45588       -2.41150       -0.85842
H          3.37015       -2.07247        0.89048
N          3.41133       -0.37901       -0.36802
H          3.18040       -0.18301       -1.35604
C          2.65112        0.62253        0.43614
H          3.24394        1.53720        0.51077
H          2.47932        0.22258        1.43707
C          1.37695        0.99411       -0.31559
O          1.43096        1.20742       -1.52436
N          0.27392        1.10688        0.45808
H          0.39755        0.84319        1.43161
C         -1.05048        1.35718        0.06258
C         -1.44781        1.50760       -1.27166
H         -0.71335        1.43900       -2.06227
C         -2.78210        1.73031       -1.59620
H         -3.07096        1.84273       -2.63607
C         -3.73468        1.80599       -0.58723
C         -3.37778        1.65275        0.74676
H         -4.11929        1.70416        1.53798
C         -2.04165        1.43277        1.05477
Cl        -1.61362        1.23470        2.73640
Cl        -5.40226        2.12314       -0.98684
C          4.92423       -0.24163       -0.25666
H          5.30468       -1.16126       -0.71569
C          5.39406       -0.16573        1.19293
H          5.03783       -1.02508        1.76962
H          4.99850        0.74234        1.66493
C          6.92645       -0.11035        1.21856
H          7.26584       -0.04098        2.25708
H          7.32894       -1.04655        0.80845
C          7.45063        1.07142        0.40117
H          7.11620        2.00898        0.86682
H          8.54611        1.07944        0.40953
C          6.93637        1.01228       -1.03802
H          7.27795        1.88309       -1.60678
H          7.34387        0.12115       -1.53442
C          5.40534        0.95201       -1.07641
H          5.04979        0.85958       -2.10960
H          4.99683        1.88315       -0.66240
