20
id_1927_cb.log	Energy: -276293.0290546
C         -1.15345        1.25492       -0.65604
H         -0.48274        1.10125       -1.51395
H         -1.71098        2.17871       -0.84456
C         -0.33198        1.38197        0.62701
H         -1.00094        1.60859        1.46601
H          0.39457        2.19611        0.55837
C          0.37445        0.05021        0.93897
C         -0.64361       -1.09455        0.96508
H         -1.31659       -0.92818        1.81374
H         -0.13381       -2.04672        1.13279
N         -1.46023       -1.20551       -0.24715
H         -0.81869       -1.40867       -1.01474
C         -2.11653        0.07227       -0.55333
H         -2.68035       -0.04406       -1.48325
H         -2.84379        0.27089        0.24446
C          1.46430       -0.22983       -0.07136
O          1.56265       -1.23768       -0.74471
O          2.35650        0.76938       -0.15777
H          3.02681        0.52078       -0.82313
H          0.87583        0.12631        1.91217
