15
id_1548_cb.log	Energy: -319169.7058564
C         -2.76839        0.57540       -0.00000
H         -3.85164        0.62052       -0.00000
C         -2.08298       -0.61921       -0.00000
H         -2.59766       -1.57757       -0.00000
C         -0.67867       -0.58362       -0.00000
C          0.15232       -1.73767        0.00000
H         -0.31512       -2.72308        0.00000
N          1.45264       -1.68711        0.00000
C          2.05591       -0.41560        0.00000
N          1.34625        0.73229        0.00000
C          0.00000        0.66042       -0.00000
N         -0.69220        1.83741       -0.00000
C         -2.01336        1.76733       -0.00000
H         -2.53759        2.72076       -0.00000
O          3.32077       -0.38763        0.00000
