15
id_1567_ca.log	Energy: -491902.5550778
C         -1.33149        0.00000       -0.00610
C         -0.63558        1.19913        0.00053
C          0.75025        1.20374        0.00003
C          1.44117       -0.00000        0.00139
C          0.75024       -1.20375        0.00003
C         -0.63559       -1.19913        0.00053
F         -1.29860       -2.34917       -0.00183
F          1.41229       -2.35348        0.00003
F          2.76562       -0.00001        0.00099
F          1.41230        2.35347        0.00003
F         -1.29859        2.34918       -0.00182
N         -2.78364        0.00001        0.00416
H         -3.16393       -0.82990       -0.47527
H         -3.16393        0.82994       -0.47523
H         -3.15787       -0.00002        0.96626
