17
id_1915_cb.log	Energy: -439171.6787457
C          0.90568        2.53079       -0.03177
H          1.09217        3.59977       -0.04726
C         -0.41163        2.06074       -0.02202
H         -1.26063        2.73599       -0.01207
C         -0.59919        0.69206        0.00701
C          0.43015       -0.25259        0.00467
C          1.74086        0.26174        0.01294
C          1.97017        1.64482       -0.00865
H          2.99637        1.99888       -0.01116
O          2.81792       -0.55736        0.02523
H          2.45451       -1.48607        0.09896
C          0.17531       -1.74137       -0.12532
O          1.15735       -2.50396        0.14148
O         -0.95185       -2.11430       -0.51368
N         -1.99916        0.24626        0.12208
O         -2.33557       -0.30635        1.15381
O         -2.75739        0.51328       -0.79486
