21
id_1735_cb.log	Energy: -334466.7276478
C          0.36875        2.52382       -0.36266
H         -0.29313        3.32143       -0.02074
H          0.62545        2.71009       -1.41227
H          1.30053        2.56358        0.21208
C         -0.30752        1.18835       -0.21055
C          0.40091       -0.00000       -0.42874
C         -0.30753       -1.18835       -0.21054
N         -1.59583       -1.19883        0.13457
C         -2.23848        0.00001        0.27982
N         -1.59582        1.19884        0.13456
O         -3.48133        0.00001        0.56943
C          0.36873       -2.52383       -0.36265
H         -0.29313       -3.32143       -0.02067
H          1.30055       -2.56358        0.21202
H          0.62536       -2.71013       -1.41228
C          1.85992       -0.00001       -0.83483
H          2.08250       -0.87528       -1.45446
H          2.08250        0.87526       -1.45447
C          2.77321       -0.00000        0.31931
C          3.51411        0.00000        1.27544
H          4.16897        0.00001        2.12386
