18
id_1338_ca.log	Energy: -577017.6154611
C          0.04101       -1.18127        0.59925
H         -0.46451       -2.12081        0.80709
C          1.39063       -1.19243        0.25175
H          1.93840       -2.12723        0.18814
C          2.02581        0.01729       -0.00912
C          1.34721        1.22929        0.07015
H          1.86112        2.16331       -0.13369
C         -0.00159        1.22095        0.41947
H         -0.54158        2.16217        0.48709
C         -0.66546        0.02056        0.68699
C         -2.14061        0.02990        1.03358
H         -2.39523        0.91639        1.61714
H         -2.40346       -0.86857        1.59839
C         -2.95754        0.06365       -0.23371
O         -3.50376        1.05322       -0.68390
O         -2.99784       -1.12598       -0.84928
H         -3.50427       -1.04507       -1.68149
Cl         3.72267        0.01495       -0.44279
