17
id_1180_ca.log	Energy: -308954.8203881
C         -0.92262        1.92903       -0.00051
H         -1.13816        2.99097       -0.00158
C         -1.96924        1.01120       -0.00585
H         -3.00247        1.34370       -0.01153
C         -1.67443       -0.34557       -0.00862
C         -0.37752       -0.82511       -0.00659
H         -0.15796       -1.88702       -0.01180
C          0.63563        0.12324       -0.00003
C          0.39703        1.49051        0.00308
H          1.22399        2.18974        0.00544
N          2.02220       -0.35259        0.00045
O          2.91271        0.47942        0.00736
O          2.21508       -1.55659       -0.00535
N         -2.77861       -1.31129        0.00898
H         -2.53069       -2.17913       -0.48529
H         -3.62076       -0.92557       -0.43975
H         -3.03453       -1.56789        0.97355
