17
id_1954_cb.log	Energy: -181271.2080901
C          0.39568       -0.57144        0.33059
H         -0.11562       -1.52567        0.15690
H          0.42469       -0.41907        1.41914
C         -0.40469        0.55801       -0.31441
H         -0.42150        0.42497       -1.40459
H          0.07552        1.52367       -0.11585
C         -1.83255        0.63811        0.19224
H         -2.34380        1.50059       -0.25508
H         -1.83320        0.77654        1.28279
O         -2.50614       -0.56908       -0.15415
H         -3.40971       -0.50761        0.19053
C          1.82580       -0.67384       -0.19715
H          1.80089       -0.85455       -1.27786
H          2.31300       -1.54428        0.25396
N          2.68034        0.49447        0.04232
H          2.63422        0.71260        1.03842
H          2.25684        1.29907       -0.41891
