47
id_16_ca.log	Energy: -532327.8196569
C         -1.73115        3.90534        0.84761
H         -0.65872        3.84311        1.05944
H         -2.26419        3.94822        1.80263
H         -1.91893        4.83932        0.31240
C         -2.19344        2.71031        0.01874
H         -1.64151        2.67561       -0.92904
H         -3.25605        2.81293       -0.21921
C         -1.93533        1.42410        0.78621
H         -2.55199        1.34241        1.68516
H         -0.88529        1.37701        1.08523
N         -2.22665        0.19896       -0.04077
C         -3.71384       -0.03542       -0.16879
H         -4.14577        0.88647       -0.55778
H         -4.07330       -0.20288        0.85025
C         -4.00145       -1.22175       -1.07235
H         -5.08683       -1.34598       -1.11787
H         -3.65312       -0.99574       -2.08759
C         -3.32110       -2.48489       -0.55203
H         -3.74637       -2.75923        0.42061
H         -3.49096       -3.31986       -1.23664
C         -1.82205       -2.23776       -0.40151
H         -1.37346       -2.05568       -1.38648
H         -1.31420       -3.10151        0.03833
C         -1.55285       -1.03848        0.50655
C         -0.05673       -0.80960        0.74049
O          0.40962       -0.93377        1.86887
N          0.68460       -0.50326       -0.34562
H          0.22317       -0.35406       -1.23833
C          2.07815       -0.19677       -0.28324
C          2.47803        1.09198       -0.66888
C          3.83807        1.39651       -0.63919
H          4.16299        2.39018       -0.93455
C          4.76987        0.44567       -0.22898
H          5.82602        0.69604       -0.20646
C          4.34975       -0.82610        0.14272
H          5.07718       -1.57312        0.44841
C          2.99631       -1.17723        0.11435
C          2.56582       -2.56868        0.49101
H          3.38128       -3.27563        0.32008
H          1.69650       -2.89044       -0.09049
H          2.28779       -2.62077        1.54848
C          1.45629        2.11574       -1.08770
H          0.87941        1.77989       -1.95734
H          1.94370        3.05807       -1.34763
H          0.74138        2.30938       -0.27918
H         -1.99440       -1.19158        1.49515
H         -1.87300        0.37049       -0.99381
