14
id_1957_cb.log	Energy: -239926.2278441
C         -1.13472       -0.59324       -1.24030
H         -0.95836       -1.67218       -1.22962
H         -0.69515       -0.17235       -2.15105
H         -2.21571       -0.41692       -1.26033
C         -0.53719        0.06978       -0.00176
C         -1.11756       -0.52689        1.27869
H         -0.93722       -1.60444        1.32424
H         -2.19887       -0.35308        1.30253
H         -0.66830       -0.05607        2.15984
C          1.00012       -0.09919       -0.00262
O          1.68561        0.96282       -0.00776
O          1.45820       -1.27133        0.00579
O         -0.84539        1.46547       -0.03843
H          0.02244        1.91657       -0.02642
