16
id_1179_cb.log	Energy: -308678.5356609
C          2.53467       -0.23698        0.00265
H          3.62018       -0.21767        0.00686
C          1.85647       -1.47253        0.00008
H          2.40619       -2.40620        0.00104
C          0.48351       -1.47195       -0.00175
H         -0.07780       -2.39777       -0.00167
C         -0.23178       -0.25944       -0.00329
C          0.42670        0.99739       -0.00231
C          1.84698        0.95204        0.00192
H          2.37950        1.89828        0.00436
N         -0.17761        2.20381       -0.03386
H         -1.17246        2.28018        0.11210
H          0.39863        3.02320        0.10671
N         -1.66125       -0.35100        0.00060
O         -2.19075       -1.45881        0.00521
O         -2.33193        0.68370       -0.00275
