22
id_182_cb.log	Energy: -583959.1625559
C          1.05437        2.23446       -0.06804
H          1.21157        3.30219       -0.17932
C          2.13130        1.39274        0.19829
H          3.13076        1.80997        0.29505
C          1.95602        0.01256        0.34526
C          0.67217       -0.51854        0.21952
H          0.51075       -1.58860        0.32220
C         -0.39543        0.33472       -0.04844
C         -0.22903        1.70933       -0.19335
H         -1.07820        2.35017       -0.40634
S         -2.03135       -0.34763       -0.15158
O         -2.85194        0.56788       -0.94099
O         -1.91253       -1.74615       -0.55892
N         -2.69133       -0.36738        1.36247
H         -2.78108        0.57291        1.75038
H         -2.16727       -0.97398        1.99503
C          3.14497       -0.89644        0.55840
H          2.82340       -1.79818        1.08614
H          3.87935       -0.39044        1.19088
N          3.81614       -1.30567       -0.68232
H          4.09355       -0.45765       -1.17759
H          3.11467       -1.73980       -1.28289
