26
id_1835_ca.log	Energy: -575448.7906867
C         -3.60554       -0.96463       -0.74815
H         -4.45179       -1.58174       -1.03223
C         -2.47880       -0.90561       -1.56800
H         -2.44685       -1.47233       -2.49311
C         -1.39272       -0.10977       -1.21474
H         -0.52092       -0.05227       -1.86051
C         -1.43163        0.61336       -0.01966
C         -2.55105        0.54889        0.81207
H         -2.56776        1.10078        1.74729
C         -3.64147       -0.23382        0.43682
H         -4.51278       -0.28075        1.08224
S         -0.07289        1.67781        0.46576
C          1.32149        0.63271        0.09895
C          2.29364        1.06561       -0.80304
H          2.16235        2.01949       -1.30323
C          3.41514        0.28127       -1.06419
H          4.16131        0.63422       -1.76796
C          3.57216       -0.95103       -0.43795
H          4.43972       -1.56716       -0.64652
C          2.61246       -1.39910        0.46679
H          2.71953       -2.35352        0.97303
C          1.51263       -0.60040        0.72982
N          0.51973       -1.07811        1.69647
H          0.19916       -0.32359        2.32178
H          0.90763       -1.82628        2.28675
H         -0.31946       -1.45989        1.23253
