53
id_1261_cb.log	Energy: -665374.7692488
C         -5.53976       -1.22875       -1.55484
H         -5.85443       -0.94151       -2.56147
H         -5.95764       -0.51157       -0.84196
H         -5.94379       -2.22037       -1.33312
C         -4.03032       -1.23483       -1.47278
H         -3.62594       -0.23638       -1.67496
H         -3.59061       -1.93716       -2.19178
O         -3.67911       -1.63462       -0.14777
C         -2.35545       -1.64393        0.18324
C         -2.05498       -2.09185        1.47733
H         -2.86938       -2.40325        2.12409
C         -0.73664       -2.12376        1.90461
H         -0.50834       -2.47080        2.90796
C          0.29494       -1.71308        1.05453
H          1.32944       -1.74158        1.38881
C          0.00016       -1.26736       -0.23206
C         -1.33180       -1.23650       -0.67007
H         -1.54628       -0.88972       -1.67675
C          1.08397       -0.74531       -1.15219
H          0.93723       -1.15776       -2.15601
H          2.06195       -1.08426       -0.80078
N          1.10722        0.72253       -1.28010
H          0.16487        0.99919       -1.55829
C          1.43449        1.43165       -0.03156
H          1.26164        0.78296        0.84166
C          0.52854        2.65997        0.13020
H          0.89975        3.25087        0.97496
H          0.61100        3.28421       -0.76829
C         -0.91394        2.28133        0.36930
C         -1.29036        1.68927        1.58231
H         -0.53948        1.53368        2.35438
C         -2.60806        1.30327        1.80943
H         -2.88114        0.84570        2.75594
C         -3.57655        1.49979        0.82304
H         -4.60487        1.19715        0.99831
C         -3.21387        2.08395       -0.38779
H         -3.96066        2.24307       -1.16075
C         -1.89030        2.46849       -0.61247
H         -1.61230        2.92773       -1.55850
C          2.91270        1.85360       -0.00678
H          3.10180        2.52764       -0.85015
H          3.08877        2.41516        0.91868
C          3.84320        0.66963       -0.06513
C          4.49339        0.31194       -1.24819
H          4.37683        0.93836       -2.12912
C          5.27459       -0.84197       -1.31289
H          5.77078       -1.10642       -2.24211
C          5.41570       -1.65528       -0.19069
H          6.02049       -2.55554       -0.24036
C          4.78067       -1.30163        1.00074
H          4.89241       -1.92517        1.88296
C          4.00519       -0.14681        1.06099
H          3.50718        0.12407        1.98994
