24
id_1259_ca.log	Energy: -337950.3527927
C         -2.67918       -0.81495        0.08979
H         -3.47119       -1.53271        0.28356
C         -2.46308        0.24829        0.97089
H         -3.08928        0.35990        1.85186
C         -1.44438        1.16555        0.72220
H         -1.27133        1.98564        1.41663
C         -0.62260        1.03857       -0.40520
C         -0.85930       -0.01928       -1.28936
H         -0.23179       -0.12700       -2.17225
C         -1.87743       -0.94345       -1.04357
H         -2.04180       -1.76293       -1.73805
C          0.54836        1.96887       -0.60191
H          0.81559        2.00672       -1.66467
H          0.27198        2.98337       -0.29392
C          1.78282        1.53090        0.20397
H          1.55254        1.54215        1.27581
H          2.58157        2.26094        0.03992
C          2.30587        0.15097       -0.19474
H          3.33532        0.02116        0.16549
H          2.33604        0.03395       -1.28264
C          1.54426       -1.00390        0.40000
O          0.99243       -1.00506        1.48586
O          1.59110       -2.10336       -0.37117
H          1.13193       -2.83335        0.08832
