32
id_1689_ca.log	Energy: -375063.1669035
C         -3.94402        0.83494        0.12382
H         -4.90099        1.34742        0.12809
C         -3.34984        0.47270       -1.08294
H         -3.84262        0.70294       -2.02262
C         -2.12134       -0.18679       -1.09034
H         -1.65702       -0.47106       -2.02958
C         -1.48306       -0.49160        0.11185
C         -2.08323       -0.12975        1.32046
H         -1.59020       -0.37581        2.25837
C         -3.30698        0.53330        1.32751
H         -3.76728        0.80795        2.27163
C         -0.13624       -1.18701        0.13149
C          0.99301       -0.18930        0.40843
C          1.15004        0.89963       -0.64693
H          1.24169        0.42901       -1.63337
H          0.23641        1.50033       -0.65082
C          2.37256        1.77625       -0.36995
H          2.22895        2.31454        0.57509
H          2.47665        2.52386       -1.16095
C          3.63670        0.92301       -0.27990
H          4.50784        1.53194       -0.02360
H          3.83950        0.44644       -1.24697
C          3.48385       -0.15134        0.78159
H          3.32172        0.27874        1.77271
H          4.33366       -0.83326        0.81763
N          2.27131       -0.98256        0.48309
H          2.17076       -1.71378        1.19772
O          0.19309       -1.81696       -1.09366
H         -0.42205       -2.55610       -1.22754
H         -0.13481       -1.92532        0.94690
H          0.85361        0.24861        1.40152
H          2.39162       -1.46711       -0.41718
