26
id_1581_ca.log	Energy: -366098.6262823
C          3.88289       -0.36195       -0.00001
H          4.83665        0.17062       -0.00003
H          3.84338       -0.99630       -0.89014
H          3.84341       -0.99626        0.89016
C          2.75339        0.64628       -0.00001
H          2.76411        1.27968       -0.88858
H          2.76414        1.27970        0.88855
N          1.42546       -0.04997        0.00002
H          1.38203       -0.66737       -0.82087
C          0.24829        0.87494        0.00004
H          0.35176        1.51021       -0.88448
H          0.35174        1.51015        0.88460
Si        -1.43493       -0.03506       -0.00000
C         -1.50368       -1.09651        1.54544
H         -0.69670       -1.83854        1.55812
H         -2.45273       -1.64104        1.59848
H         -1.41537       -0.48441        2.44940
C         -2.74599        1.30170        0.00001
H         -3.74823        0.85999        0.00005
H         -2.65912        1.93858       -0.88665
H         -2.65907        1.93861        0.88666
C         -1.50365       -1.09644       -1.54549
H         -2.45269       -1.64098       -1.59856
H         -0.69667       -1.83847       -1.55820
H         -1.41535       -0.48430       -2.44943
H          1.38206       -0.66737        0.82091
