27
id_1752_cb.log	Energy: -255878.7431295
C         -2.51925        0.72559        0.25532
H         -3.41369        1.25157       -0.09677
H         -2.56446        0.71836        1.35323
C         -2.51740       -0.71813       -0.25370
H         -2.56565       -0.71112       -1.35142
H         -3.40860       -1.24781        0.10107
C         -1.24997       -1.45633        0.18371
H         -1.24374       -2.47839       -0.21536
H         -1.23928       -1.54191        1.28049
C          0.00914       -0.71263       -0.26371
C          1.28775       -1.42861        0.17075
H          1.29058       -1.51884        1.26609
H          1.30416       -2.44645       -0.23441
N          2.52818       -0.74849       -0.22416
H          2.52170       -0.70186       -1.24508
C          2.52346        0.63977        0.25797
H          3.43867        1.12917       -0.08855
H          2.57067        0.60782        1.35411
C          1.29293        1.43932       -0.16867
H          1.29662        1.54889       -1.26331
H          1.33320        2.44991        0.25742
C          0.00777        0.73078        0.25890
C         -1.25589        1.46800       -0.18600
H         -1.25127        2.49041        0.21213
H         -1.24716        1.55258       -1.28288
H          0.00940       -0.66499       -1.36648
H          0.00038        0.67562        1.36143
