16
id_1732_cb.log	Energy: -262044.7502061
C         -2.65853       -0.92000        0.00093
H         -3.40279       -0.11998        0.00335
H         -2.81575       -1.55048        0.88279
H         -2.81837       -1.54763       -0.88249
C         -1.26251       -0.36833       -0.00019
C         -1.01784        0.98245        0.00114
H         -1.82893        1.70438        0.00283
C          0.33744        1.44308       -0.00006
N          1.33237        0.50729       -0.00252
C          0.98504       -0.78380       -0.00347
N         -0.25381       -1.28175       -0.00294
C          2.11978       -1.77096        0.00231
H          2.78984       -1.58498       -0.84307
H          1.74873       -2.79566       -0.05510
H          2.71020       -1.65955        0.91815
O          0.63085        2.68507        0.00099
