23
id_1192_cb.log	Energy: -254356.5624053
C         -2.93853       -1.41280        0.03433
H         -3.76552       -1.09116        0.67382
H         -2.57531       -2.37860        0.39590
H         -3.34505       -1.56780       -0.97167
C         -1.83603       -0.38451        0.01288
C         -2.13709        0.97885        0.07117
H         -3.17017        1.30429        0.15619
C         -1.10219        1.90791        0.02914
H         -1.32584        2.96972        0.08438
C          0.22582        1.50618       -0.07001
H          1.00082        2.26237       -0.08967
C          0.55346        0.13807       -0.14074
C         -0.50491       -0.79022       -0.08339
H         -0.29964       -1.85459       -0.11363
N          1.88050       -0.28413       -0.28352
C          2.90524        0.66517        0.13461
H          2.89914        1.55201       -0.50266
H          3.88259        0.19313        0.02845
H          2.78153        0.98721        1.17931
C          2.16608       -1.66014        0.10437
H          1.65258       -2.36549       -0.55257
H          1.87315       -1.87614        1.14264
H          3.23712       -1.83708        0.00002
