24
id_1137_ca.log	Energy: -441412.8809941
C          3.33554       -0.64596       -1.24839
H          4.15319       -1.36509       -1.20597
H          3.72246        0.37056       -1.31204
H          2.67020       -0.86233       -2.08291
N          2.55102       -0.77284        0.02258
C          3.41444       -0.52446        1.22205
H          2.80167       -0.64486        2.11417
H          3.81323        0.48715        1.15679
H          4.22299       -1.25468        1.20392
C          1.34395        0.07018        0.01371
C          1.47674        1.45341       -0.02611
H          2.45758        1.91826       -0.04950
C          0.32667        2.23559       -0.03422
H          0.41422        3.31580       -0.06101
C         -0.93136        1.63934       -0.00516
H         -1.82790        2.25004       -0.00851
C         -1.03136        0.25234        0.03236
C          0.10635       -0.55030        0.04287
H          0.02694       -1.63286        0.07598
C         -2.38402       -0.39883        0.00945
F         -2.37709       -1.58810        0.62885
F         -2.80861       -0.61816       -1.24636
F         -3.31341        0.36074        0.60542
H          2.23858       -1.75034        0.08058
