39
id_1219_cb.log	Energy: -448605.6611974
C          2.67953       -2.06476        0.36239
H          2.86910       -3.11982        0.53569
C          2.31553       -1.23435        1.42108
H          2.22102       -1.64036        2.42391
C          2.07972        0.12128        1.19720
H          1.80132        0.76936        2.02640
C          2.19350        0.66795       -0.08531
C          2.55034       -0.17864       -1.14078
H          2.64149        0.23357       -2.14353
C          2.79582       -1.53259       -0.92162
H          3.07939       -2.17222       -1.75243
C          1.88298        2.12197       -0.34544
H          2.13683        2.72178        0.53629
H          2.51117        2.48496       -1.16590
C          0.40786        2.33763       -0.72794
H          0.19300        1.71362       -1.60394
H          0.25872        3.38283       -1.02798
C         -0.58398        2.01283        0.38640
H         -0.39577        0.98245        0.72353
C         -2.03044        2.07676       -0.10086
H         -2.69102        1.96164        0.76966
H         -2.22773        3.07121       -0.52114
C         -2.39859        0.99911       -1.13488
H         -1.85065        1.16497       -2.06805
H         -3.46412        1.09924       -1.37020
C         -2.12132       -0.39712       -0.62857
C         -2.93485       -0.96095        0.36058
H         -3.79464       -0.40174        0.72360
C         -2.65911       -2.22341        0.88019
H         -3.30444       -2.64567        1.64494
C         -1.55974       -2.94587        0.41702
H         -1.34420       -3.93090        0.81963
C         -0.74324       -2.39709       -0.57003
H          0.11193       -2.95391       -0.94181
C         -1.02274       -1.13176       -1.08633
H         -0.38202       -0.70827       -1.85719
N         -0.41622        2.97418        1.48907
H          0.50679        2.83103        1.89943
H         -1.07013        2.71105        2.22690
