31
id_1655_cb.log	Energy: -398035.6622527
C         -3.67405       -0.16336        0.70879
H         -4.62592       -0.02180        1.21139
C         -3.55490        0.10363       -0.65226
H         -4.41343        0.45713       -1.21531
C         -2.32908       -0.07582       -1.29548
H         -2.23420        0.13879       -2.35720
C         -1.21647       -0.52764       -0.58704
C         -1.34439       -0.79271        0.78131
H         -0.47619       -1.14764        1.33450
C         -2.56367       -0.61264        1.42646
H         -2.65155       -0.82455        2.48782
C          0.11919       -0.73511       -1.26202
H          0.04792       -0.48739       -2.33350
H          0.38889       -1.79458       -1.19588
N          1.17545        0.04054       -0.60584
C          2.50631       -0.52067       -0.85548
H          2.62380       -0.85054       -1.89980
H          3.24804        0.26197       -0.66775
C          2.77184       -1.66786        0.10880
H          3.80382       -2.01422        0.00534
H          2.10977       -2.51882       -0.10465
O          2.59527       -1.22519        1.44738
H          1.80019       -0.66297        1.41111
C          1.10047        1.46789       -0.93734
H          1.70749        1.71423       -1.82141
H          0.05875        1.71617       -1.16800
C          1.52309        2.29155        0.26706
H          1.47809        3.35914        0.03463
H          2.55666        2.04882        0.55347
O          0.63674        2.05541        1.35379
H          0.46366        1.09712        1.33998
