21
id_1408_ca.log	Energy: -182944.2368967
C         -2.73532        0.37126        0.00568
H         -3.67803       -0.00299       -0.40135
H         -2.51409        1.32669       -0.47966
H         -2.87730        0.55720        1.07527
C         -1.61599       -0.63858       -0.22768
H         -1.45547       -0.78334       -1.30358
H         -1.89124       -1.60922        0.19899
C         -0.31440       -0.16685        0.39716
C          0.26009        1.13896       -0.14759
H          0.07020        1.20492       -1.22576
H         -0.19663        2.00131        0.34120
C          1.75831        1.01470        0.12591
H          1.96663        1.16931        1.18896
H          2.36348        1.71260       -0.45471
C          2.05338       -0.42621       -0.26664
H          2.91051       -0.87656        0.23033
H          2.15057       -0.53673       -1.34641
N          0.80339       -1.17807        0.14055
H          0.97282       -1.73318        0.98417
H         -0.40817       -0.10835        1.48448
H          0.52665       -1.83498       -0.59684
