28
id_127_cb.log	Energy: -390460.3855947
C         -2.94699       -1.37584        0.11819
H         -2.94498       -1.40979        1.21369
H         -2.31976       -2.19156       -0.25298
H         -3.96864       -1.55553       -0.23100
C         -2.45782       -0.01565       -0.36331
H         -2.45024       -0.02734       -1.46863
C         -3.39611        1.08957        0.10208
H         -3.45242        1.10424        1.19619
H         -4.40447        0.93412       -0.29293
H         -3.04590        2.07125       -0.23617
N         -1.10735        0.26289        0.14530
H         -0.90008        1.22995       -0.10633
C         -0.07054       -0.57949       -0.46368
H         -0.16375       -0.62593       -1.56593
H         -0.18555       -1.61170       -0.10853
Si         1.67154        0.00090        0.00807
C          2.91207       -0.91592       -1.06890
H          3.93913       -0.62734       -0.81932
H          2.75080       -0.69817       -2.13045
H          2.82796       -1.99994       -0.93252
C          1.78843        1.85508       -0.29959
H          2.80804        2.21636       -0.12430
H          1.12195        2.41637        0.36521
H          1.51982        2.10329       -1.33283
C          2.00343       -0.36619        1.82308
H          1.95764       -1.44282        2.02160
H          1.26790        0.12551        2.46882
H          2.99761       -0.01311        2.11915
