54
id_1261_ca.log	Energy: -665667.2400292
C         -5.53960       -1.27818       -1.59636
H         -5.83628       -1.01196       -2.61409
H         -5.98422       -0.55683       -0.90444
H         -5.93225       -2.27269       -1.36769
C         -4.03256       -1.25945       -1.48280
H         -3.63693       -0.25925       -1.69402
H         -3.56773       -1.97017       -2.17692
O         -3.70431       -1.62902       -0.14167
C         -2.39146       -1.63409        0.21389
C         -2.11490       -2.05728        1.52172
H         -2.94338       -2.35675        2.15597
C         -0.80811       -2.08271        1.98193
H         -0.60332       -2.41240        2.99551
C          0.24266       -1.68637        1.15035
H          1.27015       -1.70411        1.50454
C         -0.03344       -1.26956       -0.14850
C         -1.34979       -1.24618       -0.62752
H         -1.53808       -0.92673       -1.64795
C          1.07716       -0.80304       -1.04840
H          0.94846       -1.16238       -2.07093
H          2.05564       -1.10793       -0.67756
N          1.07999        0.70535       -1.14541
H          0.13043        0.99203       -1.42550
C          1.47199        1.46290        0.10978
H          1.29201        0.77556        0.94147
C          0.56764        2.68838        0.25651
H          0.91286        3.22736        1.14459
H          0.71103        3.34733       -0.60766
C         -0.88797        2.31238        0.40263
C         -1.34150        1.70314        1.57988
H         -0.64297        1.53371        2.39667
C         -2.67234        1.31982        1.71148
H         -3.01068        0.85061        2.63055
C         -3.57062        1.53248        0.66330
H         -4.60867        1.22929        0.76473
C         -3.12772        2.12949       -0.51353
H         -3.82056        2.30001       -1.33244
C         -1.79185        2.51596       -0.64322
H         -1.44931        2.99066       -1.56010
C          2.95370        1.83861        0.05201
H          3.11492        2.51641       -0.79456
H          3.16786        2.39568        0.96987
C          3.85453        0.63267       -0.05513
C          4.46283        0.29486       -1.26557
H          4.34110        0.95026       -2.12505
C          5.21174       -0.87694       -1.38072
H          5.67682       -1.12881       -2.32891
C          5.35964       -1.72106       -0.28342
H          5.93887       -2.63482       -0.37239
C          4.76530       -1.38489        0.93430
H          4.88413       -2.03525        1.79560
C          4.02043       -0.21474        1.04680
H          3.55124        0.04365        1.99379
H          1.69894        0.98496       -1.91831
