32
id_1621_ca.log	Energy: -409017.8498959
C         -3.63758        0.46182        2.06539
H         -3.26556       -0.32517        2.72823
H         -4.69204        0.63466        2.29225
H         -3.08461        1.38603        2.26375
C         -3.50276        0.06334        0.60632
H         -4.03431       -0.87172        0.41100
C         -3.95835        1.15521       -0.34489
H         -3.31308        2.03618       -0.25414
H         -4.97591        1.44745       -0.07398
H         -3.96947        0.82350       -1.38534
N         -2.04568       -0.26085        0.35504
H         -1.48929        0.58682        0.53687
C         -1.73604       -0.78597       -1.00859
H         -2.43262       -1.60339       -1.20154
H         -1.91843        0.01589       -1.72291
C         -0.30417       -1.31168       -1.12089
C          0.75831       -0.27683       -0.77075
C          0.63097        1.05765       -1.17701
H         -0.24383        1.37733       -1.73652
C          1.61729        1.99516       -0.88199
H          1.49696        3.02359       -1.20473
C          2.75470        1.61941       -0.17764
H          3.53129        2.33795        0.06004
C          2.88599        0.28680        0.22140
C          1.89914       -0.66068       -0.07080
H          2.03815       -1.68954        0.24227
C          4.05899       -0.12390        0.94364
N          5.00562       -0.45407        1.52608
O         -0.14593       -2.52283       -0.40698
H         -0.05687       -2.33882        0.54314
H         -0.18372       -1.58340       -2.17534
H         -1.75767       -0.95228        1.05991
