23
id_1746_cb.log	Energy: -1951079.4060756
C         -2.64190        0.82241        1.29918
H         -3.73569        0.75834        1.28374
H         -2.36058        1.72323        1.85764
H         -2.25457       -0.04999        1.83479
C         -2.09669        0.90102       -0.13361
H         -2.41061        0.00414       -0.66721
C         -2.73075        2.08316       -0.87185
H         -3.78966        1.85942       -1.03928
H         -2.26236        2.25184       -1.84731
H         -2.68524        3.01511       -0.29907
C         -0.56370        0.91095       -0.09091
C          0.01372        2.18713       -0.03492
H         -0.68069        3.01896       -0.04831
C          1.35195        2.55423        0.05005
H          1.52632        3.62812        0.09308
C          2.50024        1.78240        0.08437
H          3.44296        2.32176        0.14878
C          2.66858        0.37815        0.04467
O          3.83266       -0.11218        0.08644
C          1.54201       -0.63600       -0.03449
C          0.13800       -0.30446       -0.07067
Br        -0.91129       -1.91630       -0.08483
O          1.91940       -1.82963       -0.06127
