18
id_1411_ca.log	Energy: -158281.8975523
C          2.14921       -0.00000        0.05142
H          2.20568        0.00003        1.14046
H          2.61911        0.89491       -0.35563
H          2.61911       -0.89493       -0.35559
N          0.71728       -0.00001       -0.33295
C         -0.05721       -1.18104        0.17285
H          0.25974       -2.07138       -0.36956
H          0.20157       -1.27824        1.22968
C         -1.51694       -0.77598       -0.03279
H         -1.88549       -1.15859       -0.98633
H         -2.13788       -1.19186        0.76136
C         -1.51697        0.77597       -0.03268
H         -2.13775        1.19171        0.76167
H         -1.88572        1.15871       -0.98609
C         -0.05720        1.18106        0.17276
H          0.20168        1.27841        1.22955
H          0.25969        2.07134       -0.36979
H          0.65397       -0.00006       -1.35844
