15
id_1785_ca.log	Energy: -757435.7886612
C          0.00000        2.31807       -0.00261
H          0.00000        3.40227        0.00078
C         -1.20924        1.63220       -0.00241
H         -2.15358        2.16393        0.00326
C         -1.20304        0.24372       -0.00645
C         -0.00000       -0.45924       -0.01823
C          1.20304        0.24372       -0.00645
C          1.20924        1.63220       -0.00241
H          2.15358        2.16392        0.00326
Cl         2.71116       -0.61928        0.01005
N         -0.00000       -1.91824       -0.01198
H          0.82554       -2.30670       -0.49132
H         -0.82553       -2.30670       -0.49133
Cl        -2.71116       -0.61928        0.01005
H         -0.00001       -2.29751        0.94912
