17
id_1103_ca.log	Energy: -597332.7297469
C         -1.17461       -1.39649        0.01438
H         -1.77535       -2.29832        0.02697
C          0.21045       -1.47710        0.01168
H          0.70820       -2.43871        0.02226
C          0.97231       -0.31757       -0.00054
C          0.35691        0.93857       -0.01251
C         -1.02283        1.03016       -0.01385
H         -1.50721        2.00198       -0.02607
C         -1.77456       -0.14353        0.00136
Cl        -3.50298       -0.02577        0.00499
N          1.11967        2.18409       -0.02896
H          1.73788        2.24042       -0.85136
H          0.48972        2.99736       -0.04762
N          2.42604       -0.46140        0.00553
O          2.89237       -1.58020       -0.06842
O          3.10040        0.55602        0.08777
H          1.72927        2.26585        0.79709
