10
id_1886_cb.log	Energy: -744846.6365719
C         -1.05172       -0.02880        0.98153
H         -1.53214        0.80886        1.48522
H         -1.15996       -0.93439        1.57749
C          0.41961        0.23730        0.73439
C          1.09279       -0.92771       -0.03543
O          1.68806       -0.70768       -1.11163
O          0.96433       -2.03749        0.54761
Cl         0.64716        1.84161       -0.05153
Cl        -1.95260       -0.30700       -0.55710
H          0.90130        0.31385        1.71322
