25
id_1779_ca.log	Energy: -278534.1945849
C          0.62262        1.39222       -0.01040
H          0.23161        2.40550       -0.01342
C          2.00096        1.19470       -0.00949
H          2.68787        2.03592       -0.01155
C          2.48027       -0.10418       -0.00794
C          1.63497       -1.20489       -0.01058
H          2.04262       -2.21138       -0.01391
C          0.26259       -0.98624       -0.01153
H         -0.40710       -1.84194       -0.01561
C         -0.26442        0.31217       -0.00948
C         -1.74942        0.54158       -0.00567
H         -1.95085        1.61751       -0.01370
C         -2.63022       -0.13469        1.07777
H         -2.21825       -1.11018        1.35559
H         -2.84414        0.43892        1.98295
C         -3.73826       -0.28474        0.01428
H         -4.33857       -1.19701        0.02604
H         -4.40257        0.58392        0.01097
C         -2.64368       -0.15346       -1.06563
H         -2.86924        0.40465       -1.97765
H         -2.23624       -1.13391       -1.33212
N          3.93346       -0.32590        0.02078
H          4.20352       -1.14268       -0.54232
H          4.44355        0.48718       -0.34773
H          4.27118       -0.49006        0.97896
