24
id_190_ca.log	Energy: -301710.7782021
C          3.44503       -1.16583        0.00001
H          3.44466       -2.25805       -0.00020
H          3.99371       -0.81917        0.88182
H          3.99386       -0.81883       -0.88157
C          2.04153       -0.62786       -0.00001
C          0.94166       -1.44844       -0.00001
H          1.07084       -2.52808       -0.00002
C         -0.38224       -0.92973        0.00000
C         -1.51219       -1.78833       -0.00001
H         -1.34563       -2.86182       -0.00001
C         -2.78432       -1.27355       -0.00000
H         -3.64207       -1.93837       -0.00001
C         -2.98643        0.12679        0.00000
H         -3.99639        0.52357        0.00000
C         -1.91643        0.98764        0.00001
H         -2.09350        2.05913        0.00001
C         -0.59204        0.47757        0.00001
C          0.57310        1.28975        0.00001
C          1.83751        0.78024       -0.00000
H          2.69512        1.44880       -0.00001
N          0.40145        2.74958       -0.00001
H         -0.11701        3.07479       -0.82839
H          1.31245        3.22671        0.00019
H         -0.11737        3.07478        0.82815
