30
id_157_ca.log	Energy: -397585.0853033
C         -3.84965        0.43249        0.23896
H         -3.63052        1.19223       -0.51690
H         -3.62066        0.83919        1.22788
H         -4.91622        0.19797        0.19682
C         -3.04852       -0.82054       -0.01912
H         -3.22952       -1.59455        0.73000
H         -3.22940       -1.23635       -1.01290
O         -1.65476       -0.43746        0.06401
C         -0.73956       -1.37893       -0.16528
O         -1.01760       -2.53365       -0.40581
C          0.66334       -0.86850       -0.06017
C          1.65822       -1.84286        0.05634
H          1.35816       -2.88479        0.04114
C          2.99415       -1.49255        0.19948
H          3.74907       -2.26526        0.29435
C          3.35378       -0.14906        0.22768
H          4.39230        0.14007        0.34688
C          2.38175        0.83927        0.09874
H          2.66989        1.88460        0.11844
C          1.04969        0.48075       -0.05268
N          0.05819        1.56659       -0.18815
C         -0.28604        2.15599        1.14657
H         -1.09330        2.87286        0.99600
H         -0.60367        1.34844        1.80507
H          0.60239        2.65058        1.53983
C          0.44831        2.62674       -1.16973
H          1.26994        3.21247       -0.76226
H          0.73614        2.14396       -2.10262
H         -0.42505        3.26148       -1.31678
H         -0.81087        1.14311       -0.53822
