18
id_1931_ca.log	Energy: -251920.9292043
C          1.56098        0.73258        0.83852
H          1.00997        0.45322        1.74243
H          2.38268        1.39369        1.11619
C          0.62350        1.35319       -0.19780
H          1.19553        1.82599       -0.99941
H         -0.07274        2.08306        0.21696
C         -0.12141        0.13389       -0.76782
N          0.83905       -1.01482       -0.60565
H          0.37074       -1.74368       -0.04616
C          2.06730       -0.50833        0.12258
H          2.43844       -1.30407        0.76551
H          2.80664       -0.26167       -0.63912
C         -1.36690       -0.20140        0.03053
O         -1.47801       -1.19492        0.71618
O         -2.29744        0.73148       -0.11223
H         -3.07711        0.49008        0.42667
H         -0.38827        0.24044       -1.81939
H          1.08351       -1.42547       -1.51188
