12
id_1871_ca.log	Energy: -192249.7542508
C          2.74597       -0.15157        0.00000
H          3.27326        0.23650       -0.87910
H          2.80635       -1.24274       -0.00001
H          3.27325        0.23648        0.87913
C          1.33350        0.32365       -0.00001
H          1.17224        1.40167       -0.00001
C          0.26544       -0.48292        0.00000
H          0.36011       -1.56522        0.00001
C         -1.09830        0.06992       -0.00000
O         -1.39610        1.25485        0.00000
O         -2.03459       -0.89706       -0.00000
H         -2.91941       -0.48347       -0.00000
