36
id_1445_cb.log	Energy: -600885.1236929
C         -3.73950       -1.78379        0.06682
H         -4.22072       -2.27962       -0.77841
H         -4.07203       -0.74475        0.13303
H         -3.95494       -2.31335        0.99314
O         -2.31188       -1.83024       -0.07916
C         -1.80322       -1.19638       -1.13692
O         -2.50220       -0.67316       -1.98856
C         -0.29710       -1.18790       -1.14451
H          0.05711       -2.22186       -1.13666
H          0.01270       -0.70639       -2.07516
C          0.28542       -0.41034        0.06520
C          1.78832       -0.16013       -0.12661
C          2.56092       -0.90833       -1.01960
H          2.10211       -1.66505       -1.64800
C          3.93889       -0.69863       -1.12309
H          4.51718       -1.28983       -1.82757
C          4.56695        0.25839       -0.33065
H          5.63757        0.42246       -0.41213
C          3.80574        1.00635        0.57076
H          4.28165        1.75601        1.19672
C          2.43330        0.79676        0.67107
H          1.85216        1.38737        1.37477
C         -0.50163        0.90071        0.15894
C         -1.64246        1.02742        0.96117
H         -1.92469        0.22323        1.63331
C         -2.43180        2.17769        0.90700
H         -3.31055        2.25250        1.54170
C         -2.09914        3.22181        0.04544
H         -2.71300        4.11702        0.00478
C         -0.97166        3.10276       -0.76781
H         -0.70310        3.90388       -1.45078
C         -0.18670        1.95219       -0.71221
H          0.68225        1.86979       -1.36111
C          0.24701       -1.27970        1.37199
O          0.22627       -0.67334        2.47404
O          0.34236       -2.52637        1.22747
