21
id_1491_ca.log	Energy: -417611.8879660
C         -1.21340        2.58859       -0.09412
H         -1.24467        3.67162       -0.14716
C         -0.01617        1.91760       -0.08079
H          0.91623        2.46471       -0.12610
C         -0.00706        0.49670       -0.01306
C          1.16127       -0.33604       -0.00317
C          1.01447       -1.71261        0.00264
H          1.89799       -2.34129        0.01014
C         -0.24568       -2.33451        0.02305
H         -0.33069       -3.41594        0.03906
C         -1.37862       -1.55618        0.03200
C         -1.28031       -0.12854        0.00730
N         -2.46169        0.54447       -0.00171
C         -2.42189        1.85875       -0.04435
H         -3.37553        2.37973       -0.04827
O         -2.60183       -2.12751        0.05979
H         -3.26699       -1.40839        0.05786
C          2.52401        0.23699        0.04836
O          2.80361        1.37864        0.37863
O          3.48144       -0.64319       -0.29492
H          4.34994       -0.20972       -0.18866
