19
id_1477_ca.log	Energy: -242184.6749118
C         -2.67572       -1.12711        0.00882
H         -2.72173       -2.02341       -0.61701
H         -3.42611       -0.41524       -0.34596
H         -2.95184       -1.42399        1.02737
C         -1.29547       -0.52170       -0.01152
C         -0.16012       -1.34506       -0.00724
H         -0.28543       -2.42613       -0.01343
C          1.12660       -0.80436        0.00301
C          1.28149        0.58784        0.00787
H          2.27520        1.03257        0.01331
C          0.15665        1.40694        0.00072
C         -1.12945        0.86240       -0.01025
H         -1.98919        1.52787       -0.01842
O          0.25349        2.78039        0.00108
H          1.18869        3.04481        0.00503
C          2.34435       -1.69267       -0.00021
H          2.06124       -2.74773        0.04299
H          2.99102       -1.47438        0.85630
H          2.94015       -1.53523       -0.90596
