19
id_1770_ca.log	Energy: -540896.3456655
C         -3.35444       -1.20080        0.00000
H         -3.15403       -1.79378        0.89678
H         -3.15404       -1.79378       -0.89678
H         -4.39021       -0.86548        0.00000
O         -2.56380       -0.01208        0.00000
C         -1.22179       -0.16364       -0.00000
C         -0.53068       -1.37369       -0.00000
H         -1.06472       -2.31618       -0.00000
C          0.86280       -1.37358       -0.00000
H          1.39924       -2.31608       -0.00000
C          1.56169       -0.17381       -0.00000
C          0.89445        1.04772       -0.00000
H          1.43108        1.99132       -0.00000
C         -0.48582        1.02505       -0.00000
N         -1.25245        2.26963        0.00000
H         -1.86435        2.33188       -0.82657
H         -0.63735        3.09407       -0.00000
Cl         3.30700       -0.18694        0.00000
H         -1.86434        2.33188        0.82657
