20
id_1717_cb.log	Energy: -705702.6939943
C         -0.42372        2.04476        0.00000
H         -1.48358        2.28281        0.00000
C          0.50400        3.07915        0.00000
H          0.17508        4.11324        0.00000
C          1.86203        2.76879        0.00000
C          2.30688        1.45118        0.00000
H          3.36877        1.22762        0.00000
C          1.37028        0.42139        0.00000
H          1.71246       -0.60861        0.00000
C          0.00000        0.70851        0.00000
C         -0.98992       -0.36240        0.00000
C         -2.35171       -0.40434        0.00000
H         -3.05183        0.41820        0.00000
N         -2.76749       -1.72271        0.00000
C         -1.67084       -2.41833        0.00000
O         -0.55330       -1.65662        0.00000
C         -1.50365       -3.92024        0.00000
O         -0.32312       -4.34673        0.00000
O         -2.56453       -4.58877        0.00000
Cl         3.03288        4.06776        0.00000
