19
id_1868_cb.log	Energy: -323077.5595730
C          0.41577        1.19758        0.47026
H         -0.08108        2.14953        0.64596
C          1.75146        1.19042        0.07554
H          2.28886        2.12751       -0.05147
C          2.41724       -0.02066       -0.15900
C          1.70902       -1.21776        0.01697
H          2.21345       -2.16580       -0.15592
C          0.37381       -1.19689        0.41206
H         -0.15663       -2.13827        0.54154
C         -0.29864        0.00770        0.64662
C         -1.76463        0.02070        1.01777
H         -1.99533        0.92089        1.59517
H         -2.01043       -0.86023        1.61685
C         -2.61619        0.01864       -0.25929
O         -3.05797       -1.09185       -0.67052
O         -2.78945        1.12725       -0.84193
N          3.77858       -0.03644       -0.49081
H          4.08592        0.80344       -0.97213
H          4.05749       -0.86347       -1.01019
