32
id_1439_ca.log	Energy: -409035.4297074
C         -3.93110       -1.25919        1.07115
H         -4.88028       -0.72455        1.05276
H         -3.44035       -1.13654        2.03707
H         -4.07959       -2.31505        0.84677
N         -3.04309       -0.67699        0.02811
C         -1.73336       -1.40385       -0.03942
H         -1.95249       -2.45017       -0.25795
H         -1.28051       -1.31810        0.95273
C         -0.83659       -0.79365       -1.10682
H         -1.28609       -0.91558       -2.09697
H          0.11329       -1.32354       -1.09695
N         -0.64894        0.63736       -0.85782
C         -1.92803        1.34497       -0.84465
H         -1.75889        2.40607       -0.67226
H         -2.39756        1.21716       -1.82524
C         -2.83420        0.79390        0.24361
H         -2.38238        0.90341        1.23306
H         -3.81704        1.26725        0.22856
C          0.33004        1.10694       -0.01913
O          0.17322        2.13205        0.64573
C          1.63701        0.37786        0.03112
C          2.26956        0.26864        1.27177
H          1.77999        0.66562        2.15579
C          3.51170       -0.35091        1.36794
H          3.99387       -0.44811        2.33532
C          4.13678       -0.83933        0.22151
H          5.10882       -1.31681        0.29547
C          3.51829       -0.70926       -1.02129
H          4.01064       -1.07544       -1.91639
C          2.26742       -0.10667       -1.11882
H          1.78965        0.00055       -2.08849
H         -3.50776       -0.79186       -0.88296
