20
id_1894_cb.log	Energy: -336251.3922997
C          3.16937       -1.44422        0.00000
H          3.46836       -0.88887        0.89533
H          3.46836       -0.88887       -0.89532
H          3.64900       -2.42329        0.00000
O          1.77055       -1.69529        0.00000
C          0.92769       -0.60694        0.00000
C          1.37720        0.70428        0.00000
H          2.43430        0.94598        0.00000
C          0.44310        1.78837        0.00000
C         -0.93340        1.45739       -0.00000
H         -1.67820        2.24889       -0.00000
C         -1.34871        0.12426       -0.00000
C         -0.44004       -0.93280       -0.00000
H         -0.73845       -1.97367       -0.00000
O         -2.71188       -0.06825       -0.00000
C         -3.18779       -1.40750       -0.00000
H         -4.27588       -1.33877       -0.00000
H         -2.85471       -1.94284        0.89551
H         -2.85471       -1.94284       -0.89552
O          0.85850        3.02695        0.00000
