14
id_1532_ca.log	Energy: -250737.7283222
C          0.38206        1.21985        0.00000
H          0.93582        2.15332        0.00000
C         -1.00351        1.22907        0.00000
H         -1.55671        2.16276        0.00000
C         -1.70254        0.01733       -0.00000
C         -1.02118       -1.20411       -0.00000
H         -1.58270       -2.13409       -0.00000
C          0.36627       -1.21316        0.00000
H          0.90657       -2.15450        0.00000
C          1.07132       -0.00214        0.00000
C          2.50445       -0.01173        0.00000
N          3.66584       -0.01813       -0.00000
O         -3.06216        0.08686       -0.00000
H         -3.44777       -0.80620        0.00000
