13
id_1874_cb.log	Energy: -481121.9484760
C         -2.14839        1.21235       -0.04903
H         -2.00993        2.25835        0.24584
H         -3.03152        0.82226        0.46348
H         -2.31903        1.17606       -1.12963
C         -0.90477        0.43327        0.32679
C          0.34100        0.92323       -0.38621
H          0.19986        0.87078       -1.46988
H          0.47291        1.97991       -0.11546
C          1.61954        0.18383        0.01763
O          1.80567       -0.02735        1.24893
O          2.42011       -0.14305       -0.90314
Cl        -1.16535       -1.33460       -0.09544
H         -0.75187        0.42812        1.40664
