11
id_1497_cb.log	Energy: -202647.0815767
C          1.15561       -1.13543        0.00000
H          2.07581       -1.71558        0.00000
C         -0.09284       -1.78038        0.00000
H         -0.18367       -2.86115        0.00000
C         -1.21822       -0.97097        0.00000
H         -2.20757       -1.42665        0.00000
N         -1.20276        0.37178       -0.00000
C         -0.00000        1.01328       -0.00000
C          1.20763        0.24172       -0.00000
H          2.15598        0.77191       -0.00000
O          0.03320        2.30245       -0.00000
