37
id_1694_ca.log	Energy: -423749.0304660
C          0.97462        3.05163        0.48781
H          0.27852        3.87944        0.33752
H          1.94784        3.33335        0.07698
H          1.06457        2.86205        1.55875
C          0.42732        1.85171       -0.24442
N          1.42714        0.71822       -0.32630
C          1.86755        0.20291        1.02019
H          2.24515        1.05166        1.58978
H          0.96947       -0.19467        1.50036
C          2.93552       -0.86656        0.84955
H          3.83057       -0.41187        0.40718
H          3.20763       -1.21952        1.84813
C          2.44240       -2.01279       -0.03003
H          3.23429       -2.75401       -0.16692
H          1.59806       -2.51336        0.46218
C          1.98543       -1.46491       -1.38006
H          1.56162       -2.25347       -2.00805
H          2.83458       -1.03083       -1.92203
C          0.91313       -0.40536       -1.19002
H          0.05321       -0.82504       -0.65997
H          0.58959        0.03894       -2.13269
O         -0.69354        1.34217        0.44468
C         -1.80683        1.01480       -0.27105
O         -1.93440        1.26512       -1.44453
C         -2.77282        0.24398        0.58725
H         -2.77155        0.66056        1.59635
H         -3.76597        0.33488        0.14074
C         -2.31046       -1.20462        0.59804
C         -1.66178       -1.70785        1.64909
H         -1.47937       -1.11523        2.54195
H         -1.30906       -2.73608        1.65091
C         -2.57973       -1.98182       -0.65916
H         -2.16387       -2.99038       -0.59844
H         -2.14400       -1.47707       -1.53071
H         -3.65805       -2.05447       -0.84210
H          0.16717        2.08943       -1.27627
H          2.25708        1.11307       -0.79384
