65
id_1225_ca.log	Energy: -623012.7560347
C         -5.15253        0.21091        0.71112
H         -5.78304        0.96741        1.16821
C         -5.07143       -1.06637        1.26800
H         -5.63957       -1.30685        2.16163
C         -4.26824       -2.03685        0.67673
H         -4.21646       -3.03300        1.11046
C         -3.52814       -1.75069       -0.47756
C         -3.61175       -0.46692       -1.02269
H         -3.03981       -0.22923       -1.91838
C         -4.42388        0.50687       -0.43791
H         -4.48635        1.49669       -0.88150
C         -2.64618       -2.80807       -1.10043
H         -3.24875       -3.68372       -1.36582
H         -2.22714       -2.42617       -2.03864
C         -1.52139       -3.28109       -0.16744
H         -0.90037       -4.01848       -0.68863
H         -1.95302       -3.78500        0.70357
C         -0.63520       -2.16896        0.37162
H          0.14406       -2.57778        1.01438
H         -1.21077       -1.43298        0.93683
N          0.04285       -1.43426       -0.74706
H         -0.66395       -0.89122       -1.26206
C          1.18189       -0.50302       -0.37438
H          1.41803       -0.00699       -1.31914
C          2.38381       -1.33485        0.06707
H          2.13353       -1.90465        0.96972
H          2.61176       -2.06141       -0.72573
C          3.64611       -0.51132        0.35399
H          3.46239        0.11991        1.23612
C          4.03976        0.40580       -0.81027
H          4.15984       -0.20751       -1.71625
H          3.24101        1.12895       -1.01735
C          5.34196        1.15802       -0.52285
H          5.61119        1.78103       -1.38283
H          5.17949        1.83786        0.32508
C          6.48155        0.19810       -0.17960
H          6.70053       -0.42949       -1.05473
H          7.39485        0.75807        0.04994
C          6.09564       -0.70067        0.99586
H          5.95348       -0.08103        1.89201
H          6.90289       -1.40656        1.22035
C          4.80194       -1.45936        0.69815
H          4.52046       -2.08925        1.55082
H          4.96783       -2.13260       -0.15590
C          0.72460        0.52124        0.65679
H          0.56084        0.01826        1.61932
H          1.56822        1.20737        0.80551
C         -0.50614        1.35586        0.28521
H         -1.38404        0.69703        0.17917
C         -0.32538        2.11332       -1.03697
H          0.58161        2.73288       -0.96369
H         -0.16661        1.41335       -1.86736
C         -1.53218        3.00032       -1.35312
H         -1.35568        3.55346       -2.28217
H         -2.40679        2.35797       -1.52629
C         -1.84037        3.96468       -0.20719
H         -1.00310        4.66727       -0.09258
H         -2.72900        4.56117       -0.44208
C         -2.03788        3.20524        1.10551
H         -2.92526        2.56177        1.02178
H         -2.22628        3.90424        1.92786
C         -0.81945        2.33739        1.42115
H         -0.97441        1.78195        2.35414
H          0.05708        2.98433        1.57512
H          0.40863       -2.12486       -1.41625
