15
id_1050_cb.log	Energy: -157237.2616789
C         -1.36927        0.76317       -0.23540
H         -2.13983        1.39155        0.21722
H         -1.51073        0.78315       -1.32205
C         -1.40772       -0.69077        0.26065
H         -2.23661       -1.26541       -0.15921
H         -1.50515       -0.70324        1.35246
C         -0.03259       -1.23482       -0.14483
H         -0.04497       -1.53411       -1.20123
H          0.31538       -2.09058        0.43868
C          0.89467       -0.04341       -0.00818
N          2.16615       -0.14524        0.00524
H          2.57675        0.79121        0.09019
C          0.05428        1.21678        0.11225
H          0.10221        1.55502        1.15556
H          0.44362        2.02339       -0.51520
