23
id_1725_ca.log	Energy: -1959190.4190870
C          0.30190       -1.15026        0.34175
H         -0.23316       -2.04876        0.63462
C          1.69228       -1.16074        0.34347
H          2.23279       -2.05953        0.61865
C          2.37608       -0.00035       -0.00095
C          1.70001        1.16370       -0.34977
H          2.24669        2.05928       -0.62331
C          0.31002        1.15984       -0.35537
H         -0.22145        2.05973       -0.65132
C         -0.40267        0.00712       -0.00693
C         -1.87963        0.01139       -0.00258
C         -2.61044        1.11540        0.35469
H         -2.18345        2.05869        0.67421
N         -3.96092        1.05997        0.33506
C         -4.62929       -0.06740       -0.01719
N         -3.95913       -1.17563       -0.37967
C         -2.64251       -1.12260       -0.37026
H         -2.13191       -2.02916       -0.68614
N         -5.95212       -0.07066       -0.00394
H         -6.43948       -0.91702       -0.27177
H         -6.48844        0.74661        0.26351
Br         4.27199       -0.00542        0.00426
H         -4.49044        1.88737        0.61105
