40
id_1119_cb.log	Energy: -505924.9136927
C         -2.67191       -1.54967        0.90726
H         -2.22778       -1.36238        1.89041
H         -2.18891       -2.41919        0.45768
H         -3.71993       -1.82440        1.05889
C         -2.62379       -0.29105        0.01651
C         -2.99666       -0.66086       -1.42990
H         -3.03322        0.23638       -2.05690
H         -3.98773       -1.12842       -1.44269
H         -2.27961       -1.35928       -1.86722
C         -3.71684        0.65291        0.54795
H         -4.65806        0.09852        0.60392
H         -3.88674        1.50859       -0.11042
H         -3.47782        1.02335        1.55056
C         -1.24842        0.41702        0.01744
C         -1.20545        1.80936        0.01554
H         -2.12214        2.38536        0.03930
C          0.00060        2.51614       -0.00928
C          1.20616        1.80851       -0.02890
H          2.12332        2.38376       -0.05245
C          1.24836        0.41616       -0.02555
C         -0.00021       -0.23492       -0.00348
N         -0.00049       -1.70419        0.00271
O         -0.28895       -2.28830       -1.02824
O          0.28777       -2.27940        1.03875
C          2.62365       -0.29205       -0.01648
C          3.71712        0.64728       -0.55541
H          3.47808        1.00976       -1.56092
H          4.65818        0.09218       -0.60704
H          3.88757        1.50818        0.09595
C          2.67246       -1.55811       -0.89660
H          2.22921       -1.37898       -1.88167
H          2.18914       -2.42387       -0.44021
H          3.72061       -1.83406       -1.04504
C          2.99523       -0.64958        1.43330
H          3.98627       -1.11700        1.45104
H          2.27772       -1.34428        1.87579
H          3.03122        0.25295        2.05273
N          0.00001        3.90009       -0.07480
H          0.84560        4.33786        0.27409
H         -0.83396        4.33837        0.30038
