26
id_1222_cb.log	Energy: -362322.9439948
C         -3.97889       -0.08231       -0.89083
H         -5.04420       -0.02063       -0.64198
H         -3.77245       -1.10089       -1.24030
H         -3.77897        0.60807       -1.71733
C         -3.12168        0.25328        0.33463
H         -3.37070        1.27215        0.65688
C         -3.44043       -0.70386        1.48794
H         -4.50032       -0.63726        1.75748
H         -2.84480       -0.46912        2.37654
H         -3.23114       -1.74132        1.20214
C         -1.64445        0.23876       -0.00900
C         -1.00868       -0.94082       -0.42048
H         -1.57896       -1.86481       -0.49317
C          0.34641       -0.95029       -0.74403
H          0.81932       -1.87732       -1.06235
C          1.11337        0.21914       -0.66821
C          0.48139        1.39744       -0.26269
H          1.05627        2.31903       -0.20167
C         -0.87644        1.40478        0.06228
H         -1.34818        2.33462        0.37385
C          2.59379        0.18618       -0.96814
H          2.92373        1.16915       -1.31957
H          2.80802       -0.55677       -1.74031
C          3.38381       -0.15879        0.30491
O          3.92108       -1.29939        0.37682
O          3.42558        0.72239        1.20962
