24
id_1054_cb.log	Energy: -254503.8174269
C          2.56247       -0.57181       -0.19481
H          2.59326       -0.60438       -1.29092
H          2.70299       -1.59109        0.17828
H          3.41148        0.02884        0.14758
C          1.24478        0.03173        0.28313
C          1.10962        1.49103       -0.16979
H          1.95626        2.07332        0.21230
H          1.17176        1.52233       -1.26763
C         -0.21260        2.11575        0.27947
H         -0.29210        3.14428       -0.08725
H         -0.23471        2.16514        1.37633
C         -1.40197        1.28931       -0.21153
H         -1.43190        1.29087       -1.30954
H         -2.34909        1.70974        0.14405
C         -1.27343       -0.14981        0.25870
C          0.03868       -0.77939       -0.20948
N          0.01306       -2.19115        0.19726
H          0.24105       -2.23600        1.19238
H          0.76138       -2.69181       -0.27849
O         -2.36868       -0.91018       -0.23477
H         -2.05629       -1.83341       -0.17305
H          1.22377        0.00950        1.38471
H         -1.27801       -0.16758        1.36374
H          0.03292       -0.76109       -1.30922
