29
id_1039_ca.log	Energy: -233006.0210744
C         -3.89583        0.79849        0.66201
H         -4.89174        1.00007        0.25599
H         -3.44542        1.75791        0.93904
H         -4.01915        0.21182        1.57889
C         -3.02057        0.05742       -0.34344
H         -2.92518        0.65250       -1.26084
H         -3.50348       -0.88444       -0.63307
C         -1.62729       -0.24367        0.20418
H         -1.71349       -0.86275        1.10822
H         -1.15922        0.70015        0.51885
C         -0.74089       -0.95750       -0.81595
H         -0.59176       -0.30758       -1.68956
H         -1.26993       -1.84029       -1.19407
C          0.60528       -1.42755       -0.25730
H          1.19127       -1.91284       -1.04849
H          0.43069       -2.18256        0.51750
C          1.47128       -0.34880        0.38880
C          2.81191       -0.89603        0.84730
H          3.41106       -1.21567       -0.01249
H          2.63260       -1.76729        1.48215
H          3.38030       -0.16685        1.42871
N          1.69208        0.76375       -0.60895
H          0.77726        1.12462       -0.90459
C          2.51014        1.90672       -0.11637
H          2.10072        2.23142        0.84012
H          2.44743        2.70963       -0.84921
H          3.54230        1.58260       -0.00376
H          0.94559        0.12399        1.22321
H          2.13141        0.36478       -1.44924
