30
id_1336_ca.log	Energy: -350529.9613365
C          2.76226       -0.71794        0.48280
H          3.50984       -0.53056       -0.28877
H          2.59765       -1.78863        0.59900
H          3.07282       -0.28272        1.43234
N          1.48623       -0.07030        0.06179
C          0.90718       -0.76533       -1.14494
H          0.28244       -0.05247       -1.68819
H          1.75706       -1.01482       -1.78361
C          0.11341       -2.00801       -0.74338
H          0.14234       -2.70392       -1.58596
H          0.62099       -2.51504        0.08489
C         -1.35955       -1.76848       -0.38495
H         -1.77100       -2.70442        0.00479
H         -1.93308       -1.51160       -1.28028
C         -1.61312       -0.66377        0.65131
C         -1.57849        0.72405        0.01032
O         -2.25032        0.91211       -0.98889
C         -0.73927        1.85289        0.57780
H         -1.40778        2.71685        0.62900
H         -0.37892        1.63634        1.58567
C          0.42679        2.19873       -0.37122
H          0.70110        3.24652       -0.22415
H          0.09070        2.10969       -1.40855
C          1.70195        1.40271       -0.12334
H          2.18330        1.74143        0.79661
H          2.40632        1.51416       -0.95167
O         -0.69067       -0.70034        1.73385
H         -0.65992       -1.60929        2.07805
H         -2.63751       -0.77227        1.03308
H          0.82086       -0.21045        0.84922
