29
id_1091_cb.log	Energy: -303666.9949852
C         -1.50621        1.83355        0.27871
H         -0.53081        2.08502        0.70333
H         -2.27251        2.28808        0.91458
H         -1.57873        2.27830       -0.71940
C         -1.73582        0.32157        0.22230
C         -1.59941       -0.25134        1.63969
H         -2.36405        0.18471        2.29118
H         -0.61892       -0.01803        2.06747
H         -1.73234       -1.33836        1.65200
C         -3.16136        0.07988       -0.28358
H         -3.85897        0.67445        0.31372
H         -3.46023       -0.96828       -0.19370
H         -3.26044        0.38438       -1.33101
N         -0.77060       -0.30985       -0.73845
C         -1.10700       -1.69718       -1.06580
H         -0.29413       -2.12419       -1.65744
H         -2.00990       -1.72334       -1.67905
H         -1.27043       -2.34794       -0.19447
C          0.60686       -0.15415       -0.37153
C          1.31213       -1.13931        0.33261
H          0.80409       -2.04847        0.64093
C          2.65963       -0.96711        0.64377
H          3.18612       -1.74530        1.18858
C          3.32755        0.19526        0.26551
H          4.37700        0.32897        0.50865
C          2.63653        1.17998       -0.43916
H          3.14782        2.08463       -0.75471
C          1.29439        1.00186       -0.76305
H          0.76694        1.75632       -1.33847
