32
id_103_cb.log	Energy: -421974.1961578
C         -2.54167       -1.03599        1.52479
H         -1.62642       -1.39253        1.99390
H         -3.28826       -1.83121        1.50923
H         -2.92365       -0.15604        2.04300
N         -2.25427       -0.64974        0.10040
C         -3.55527       -0.26895       -0.53610
H         -3.98449        0.57389        0.00543
H         -4.21409       -1.13338       -0.46216
H         -3.38270       -0.02105       -1.58297
C         -1.71209       -1.84148       -0.64316
H         -0.80832       -2.19520       -0.14822
H         -1.49335       -1.53121       -1.66539
H         -2.47804       -2.61812       -0.62800
C         -1.24999        0.45573        0.06226
C         -1.54453        1.67935       -0.52794
H         -2.51399        1.89423       -0.95837
C         -0.54990        2.65904       -0.56771
H         -0.77400        3.61820       -1.02418
C          0.71387        2.41194       -0.04378
H          1.48577        3.17583       -0.09810
C          1.00543        1.18070        0.55306
C          0.00469        0.20949        0.61562
H          0.23453       -0.74223        1.08730
C          2.39715        0.85582        1.03383
H          2.91823        1.77777        1.30949
H          2.34893        0.21771        1.92267
C          3.20424        0.13283       -0.06341
H          4.21275       -0.06781        0.31390
H          3.28165        0.77352       -0.94684
C          2.54528       -1.19552       -0.44073
O          2.02108       -1.30176       -1.58633
O          2.53919       -2.10474        0.43960
