13
id_1374_cb.log	Energy: -273735.2226904
C          1.62717       -1.61286        0.00000
H          2.31586       -2.45358        0.00000
C          0.27194       -1.81284        0.00000
H         -0.15423       -2.81336        0.00000
C         -0.63802       -0.69820        0.00000
C         -0.00000        0.59230       -0.00000
N          1.35057        0.76290       -0.00000
C          2.13722       -0.29259        0.00000
H          3.20937       -0.11622        0.00000
C         -0.72511        1.85226       -0.00000
H         -0.05987        2.73522       -0.00000
O         -1.94671        2.02047       -0.00000
O         -1.90383       -0.87807        0.00000
