31
id_1686_cb.log	Energy: -559481.8032991
C          1.56088       -1.64888        0.34998
H          1.98629       -2.64210        0.42890
C          0.22034       -1.45219        0.57250
H         -0.39452       -2.31341        0.79841
C         -0.39290       -0.17360        0.43193
C          0.50361        0.90164        0.14490
C          1.85095        0.70952       -0.11414
H          2.48700        1.55806       -0.33352
C          2.36951       -0.56752       -0.02018
N          3.77304       -0.77519       -0.27725
O          4.22762       -1.90327       -0.13457
O          4.45250        0.18134       -0.62872
N          0.10708        2.29832        0.26934
O         -0.74897        2.59226        1.08985
O          0.68785        3.12492       -0.41951
N         -1.73277       -0.01590        0.55472
C         -2.57075       -1.07445        1.13168
H         -1.99042       -1.63777        1.86258
H         -3.36864       -0.56232        1.68303
C         -3.19629       -1.96035        0.05772
H         -2.40462       -2.48133       -0.49556
H         -3.82163       -2.71891        0.53891
C         -4.01862       -1.09192       -0.89470
H         -4.86944       -0.66657       -0.34610
H         -4.42675       -1.69377       -1.71253
C         -3.15856        0.04124       -1.45083
H         -3.75516        0.71795       -2.07129
H         -2.36512       -0.37530       -2.08464
C         -2.49639        0.86621       -0.34277
H         -3.24528        1.39882        0.25425
H         -1.84579        1.60576       -0.80300
