40
id_1049_cb.log	Energy: -331338.6224509
C         -6.75044        1.15107        0.41552
H         -6.02529        1.93128        0.16407
H         -6.71082        0.99559        1.49995
H         -7.74559        1.53349        0.16822
C         -6.45916       -0.14993       -0.32914
H         -6.44914        0.04183       -1.41006
H         -7.27506       -0.85943       -0.14739
C         -5.13520       -0.80068        0.07651
H         -5.02511       -1.75369       -0.45768
H         -5.16595       -1.04656        1.14740
C         -3.90674        0.06435       -0.20227
H         -3.94571        0.97767        0.40569
H         -3.92293        0.38965       -1.25265
C         -2.59446       -0.66370        0.08089
H         -2.53903       -1.56719       -0.54238
H         -2.58868       -1.00802        1.12474
C         -1.36116        0.20011       -0.17161
H         -1.41165        1.09849        0.45942
H         -1.37204        0.55269       -1.21254
C         -0.04906       -0.53253        0.09838
H          0.00293       -1.42864       -0.53580
H         -0.03930       -0.88874        1.13805
C          1.18398        0.33302       -0.14971
H          1.13441        1.22686        0.48782
H          1.17184        0.69290       -1.18808
C          2.49624       -0.40168        0.11350
H          2.54681       -1.29429       -0.52555
H          2.50857       -0.76307        1.15125
C          3.72864        0.46532       -0.13309
H          3.67914        1.35674        0.50777
H          3.71452        0.82890       -1.17010
C          5.04155       -0.26971        0.12581
H          5.09997       -1.15891       -0.51778
H          5.06464       -0.63044        1.16389
C          6.26757        0.60242       -0.12259
H          6.21726        1.49045        0.51776
H          6.25187        0.96451       -1.15690
N          7.55928       -0.05305        0.11019
H          7.58512       -0.89167       -0.47081
H          7.55363       -0.40733        1.06721
