21
id_1176_ca.log	Energy: -549521.0681466
C         -2.40703       -0.03963       -1.56199
H         -2.00535       -0.94866       -2.01356
H         -2.01677        0.85201       -2.05626
H         -3.49988       -0.04709       -1.58221
S         -1.92229        0.00317        0.14362
O         -2.35860        1.27962        0.72620
O         -2.35599       -1.24459        0.78713
C         -0.14150        0.00370        0.09439
C          0.52704        1.22221        0.05989
H         -0.02077        2.15806        0.08584
C          1.91718        1.22154        0.00073
H          2.47514        2.15223       -0.02370
C          2.57753        0.00359       -0.02206
C          1.91680       -1.21696        0.01017
H          2.47519       -2.14729       -0.00688
C          0.52895       -1.21683        0.06995
H         -0.01921       -2.15234        0.10418
N          4.04413       -0.00471       -0.07780
H          4.44909       -0.45207        0.75709
H          4.42773        0.94798       -0.13385
H          4.38541       -0.52655       -0.89721
