16
id_1992_ca.log	Energy: -264114.7180327
C         -2.86065       -0.27356       -0.32782
H         -3.40587        0.67510       -0.31017
H         -3.41108       -1.04071        0.21921
H         -2.76306       -0.57348       -1.37821
C         -1.48392       -0.09726        0.24319
O         -1.01188       -0.88682        1.05107
C         -0.69668        1.10049       -0.23514
H         -0.73652        1.12183       -1.33062
H         -1.22995        1.99657        0.10547
C          0.73193        1.11747        0.27509
H          0.77121        1.12762        1.36790
H          1.25007        2.01970       -0.07064
C          1.52952       -0.05676       -0.22020
O          1.22087       -0.77407       -1.15394
O          2.67046       -0.22593        0.46584
H          3.16841       -0.97443        0.08260
