34
id_1645_cb.log	Energy: -625361.5961219
C         -4.37439        0.55915       -0.88553
H         -3.91167        1.03335       -1.75970
H         -4.56142        1.33221       -0.13473
H         -5.33418        0.13857       -1.19935
C         -3.46367       -0.53051       -0.33516
H         -3.93858       -0.97917        0.54677
C         -3.23827       -1.62444       -1.37902
H         -2.71268       -1.21071       -2.24868
H         -4.19463       -2.03249       -1.72163
H         -2.64377       -2.45186       -0.98019
N         -2.21597        0.09133        0.13659
H         -1.77056        0.53866       -0.66795
C         -1.26371       -0.85391        0.71814
H         -1.80970       -1.49245        1.42186
H         -0.77496       -1.50597       -0.01803
C         -0.20920       -0.05958        1.50607
C          0.72756        0.69079        0.56923
C          0.50667        2.04148        0.30158
H         -0.31125        2.54376        0.80848
C          1.32048        2.75187       -0.57801
H          1.12831        3.80279       -0.76900
C          2.38035        2.10284       -1.20086
H          3.02805        2.63920       -1.88749
C          2.62345        0.75473       -0.94626
H          3.45691        0.26969       -1.44097
C          1.80533        0.04046       -0.06602
S          2.08295       -1.68313        0.29377
C          3.67036       -2.01119       -0.51113
H          4.44738       -1.34219       -0.13605
H          3.59437       -1.93521       -1.59726
H          3.92606       -3.03912       -0.24613
O         -0.87944        0.81159        2.39878
H         -1.68386        1.07543        1.90808
H          0.37656       -0.75661        2.11703
