25
id_1368_cb.log	Energy: -289076.8648465
C          3.10212       -0.68974        1.11282
H          3.34557       -0.22742        2.07345
H          4.00218       -0.64921        0.47384
H          2.85682       -1.74120        1.28770
N          1.96474       -0.00755        0.50601
C          2.32354        1.38681        0.27325
H          3.13331        1.49060       -0.47143
H          2.66419        1.83524        1.21049
H          1.45925        1.95819       -0.07472
C          1.65273       -0.67482       -0.75867
H          2.53320       -0.66647       -1.42856
H          1.42813       -1.72292       -0.53521
C          0.46852       -0.07141       -1.51471
H          0.29878       -0.69317       -2.40100
H          0.70749        0.93465       -1.87134
C         -0.79575       -0.03190       -0.69555
C         -1.39165        1.18166       -0.34513
H         -0.94494        2.11479       -0.67463
C         -2.55334        1.17401        0.41935
H         -3.03350        2.10591        0.70214
C         -3.08608       -0.04912        0.81188
H         -3.98962       -0.11154        1.40813
C         -2.42548       -1.20710        0.41450
H         -2.81616       -2.18097        0.70015
N         -1.30937       -1.21486       -0.32107
