29
id_166_cb.log	Energy: -303675.4975440
C          2.88876        1.76348        0.70847
H          3.62443        1.44082        1.45578
H          2.09718        2.31116        1.22955
H          3.38639        2.44714        0.01449
C          2.32379        0.55612       -0.02683
C          1.56158       -0.34950        0.94864
H          2.23934       -0.61088        1.77395
H          0.73668        0.22608        1.39009
C          1.01175       -1.63768        0.33372
H          1.84118       -2.27335        0.00075
H          0.48314       -2.20393        1.11007
C          0.05936       -1.41200       -0.85188
H         -0.27633       -2.38928       -1.21823
H          0.59627       -0.93102       -1.67785
C         -1.14207       -0.57482       -0.48070
C         -2.10246       -1.07665        0.40636
H         -1.98787       -2.08433        0.80016
C         -3.20027       -0.30767        0.78242
H         -3.93683       -0.71640        1.46799
C         -3.35686        0.98373        0.27764
H         -4.21280        1.58442        0.56967
C         -2.40937        1.49449       -0.60589
H         -2.52332        2.49734       -1.00691
C         -1.31162        0.71915       -0.98041
H         -0.57820        1.12044       -1.67607
N          3.41610       -0.11896       -0.74435
H          3.02189       -0.90381       -1.26380
H          4.01826       -0.55036       -0.03941
H          1.62238        0.91679       -0.78915
