22
id_1311_cb.log	Energy: -405054.6082115
C         -1.42398       -1.64238       -0.00091
H         -1.10427       -2.68055        0.00362
C         -2.75195       -1.32805       -0.00290
H         -3.50660       -2.10977       -0.00286
C         -3.18161        0.03558       -0.00474
C         -2.23141        1.04642       -0.00299
H         -2.54828        2.08603       -0.00000
C         -0.85608        0.74390       -0.00426
C         -0.43243       -0.62072       -0.00287
C          0.94152       -0.92667       -0.00069
H          1.26903       -1.96058        0.00049
C          1.85559        0.10060        0.00025
C          1.47041        1.46179       -0.00016
H          2.22730        2.23623        0.00100
C          0.13811        1.76734       -0.00206
H         -0.18196        2.80488       -0.00235
N          3.26817       -0.22304        0.00247
O          3.60453       -1.40092        0.00197
O          4.07573        0.69793        0.00483
N         -4.52822        0.30875       -0.06487
H         -4.80364        1.23916        0.22740
H         -5.14224       -0.41825        0.28304
