26
id_1702_cb.log	Energy: -231966.5082555
C         -2.52386       -1.39443        0.17397
H         -3.42839       -0.87429       -0.15911
H         -2.52208       -1.40000        1.27050
H         -2.58514       -2.43336       -0.16627
C         -1.26526       -0.71903       -0.36019
C         -0.00000       -1.45704        0.07910
H         -0.00000       -1.53099        1.17842
H         -0.00000       -2.48276       -0.31105
C          1.26526       -0.71903       -0.36019
C          1.19525        0.73172        0.10820
H          2.07764        1.28185       -0.23886
H          1.21856        0.74743        1.21761
N          0.00000        1.41822       -0.38485
C         -1.19524        0.73172        0.10820
H         -1.21856        0.74743        1.21761
H         -2.07764        1.28185       -0.23886
C          0.00000        2.78840        0.10852
H         -0.88716        3.31636       -0.25311
H          0.88716        3.31636       -0.25311
H         -0.00000        2.83414        1.21215
C          2.52386       -1.39443        0.17397
H          2.58514       -2.43336       -0.16628
H          2.52208       -1.40001        1.27050
H          3.42839       -0.87429       -0.15911
H         -1.30087       -0.71558       -1.45835
H          1.30087       -0.71558       -1.45835
