22
id_1021_ca.log	Energy: -545197.3801644
C          2.78917        0.23777        0.21629
H          3.19644       -0.61762        0.75557
H          3.03771        1.14456        0.76822
H          3.27279        0.28799       -0.76375
C          1.29925        0.10375        0.06128
C          0.63524       -1.13111        0.02727
C         -0.74154       -1.28695       -0.00555
H         -1.18024       -2.27926       -0.02676
C         -1.54675       -0.15360       -0.02831
C         -0.95914        1.10686       -0.00133
H         -1.56080        2.00891       -0.01974
C          0.42475        1.19888        0.03199
N          0.96708        2.56476        0.01476
O          0.36596        3.42085        0.64227
O          1.96966        2.77439       -0.64570
C         -3.02542       -0.32967       -0.08706
O         -3.56969       -1.41591       -0.09832
O         -3.68443        0.82841       -0.12890
H         -4.64491        0.65336       -0.17405
N          1.41383       -2.37728        0.00851
O          2.43693       -2.40306       -0.65340
O          0.97650       -3.32792        0.63531
