37
id_1009_ca.log	Energy: -376689.8951392
C          3.81525       -0.83210       -1.09088
H          3.94612        0.25094       -1.19007
H          3.93142       -1.27865       -2.08236
H          4.62076       -1.21009       -0.45240
C          2.45144       -1.15756       -0.49150
H          2.31066       -2.24373       -0.43644
H          1.66891       -0.77750       -1.16391
C          2.29871       -0.56705        0.91123
H          2.51701        0.50889        0.89230
H          3.03950       -1.02171        1.57790
C          0.92972       -0.81531        1.52366
H          0.87988       -0.54697        2.58113
H          0.64254       -1.86425        1.41163
N         -0.12823        0.00397        0.83227
C         -1.49260       -0.62668        0.92178
H         -1.54531       -1.20287        1.84666
H         -2.23137        0.17555        0.94740
C         -1.71181       -1.48358       -0.31190
C         -3.10429       -2.08314       -0.32299
H         -3.25625       -2.65598       -1.24185
H         -3.85620       -1.28977       -0.27348
H         -3.23878       -2.75462        0.52982
O         -1.50905       -0.58468       -1.40778
H         -1.45994       -1.09699       -2.23107
C         -0.12417        1.44389        1.26815
H         -0.85219        1.53238        2.07656
H          0.86841        1.67646        1.65810
C         -0.44899        2.38407        0.10635
C          0.61473        2.35774       -0.98543
H          0.64624        1.39020       -1.50250
H          1.60588        2.56039       -0.56905
H          0.38512        3.11989       -1.73423
O         -1.74629        2.14972       -0.42541
H         -1.71278        1.35585       -0.99326
H         -0.95192       -2.27571       -0.35333
H         -0.48160        3.38615        0.54483
H          0.09630       -0.00779       -0.17352
