26
id_1582_ca.log	Energy: -301977.4126495
C         -3.96248        0.22805        0.17842
H         -4.36515        1.22675        0.34026
H         -4.46196       -0.24894       -0.66850
H         -4.13266       -0.39233        1.06254
C         -2.49117        0.31498       -0.08893
O         -1.83439        1.33678       -0.08576
O         -1.96232       -0.89531       -0.34025
C         -0.54952       -0.93520       -0.59725
H         -0.29380       -0.10464       -1.26196
H         -0.37963       -1.87684       -1.12193
C          0.22266       -0.89416        0.71349
H         -0.05251       -0.00488        1.28747
H         -0.05965       -1.76461        1.31370
C          1.72786       -0.97257        0.52621
H          2.01561       -1.88341       -0.00416
H          2.23638       -0.94844        1.49251
N          2.30872        0.16711       -0.26891
C          1.90671        1.50402        0.25307
H          0.83502        1.64002        0.10933
H          2.16402        1.54398        1.31257
H          2.45517        2.26443       -0.30214
C          3.79338        0.04080       -0.32405
H          4.17784        0.16852        0.68845
H          4.04378       -0.94794       -0.70744
H          4.18238        0.81625       -0.98267
H          1.96315        0.09511       -1.23325
