26
id_1390_cb.log	Energy: -312992.0549300
C         -3.17073        0.86049       -0.48832
H         -3.89588        1.56652       -0.88123
C         -3.58022       -0.23557        0.26487
H         -4.62698       -0.41675        0.48231
C         -2.60507       -1.10680        0.73756
H         -2.88883       -1.97461        1.32815
N         -1.29596       -0.95049        0.51258
C         -0.90710        0.10411       -0.21835
C         -1.81345        1.03160       -0.73479
H         -1.45047        1.86919       -1.32250
C          0.58042        0.28264       -0.41357
C          1.19430        0.93348        0.83813
H          0.71799        1.90453        1.01804
H          0.96866        0.29185        1.70131
C          2.70807        1.08384        0.68749
H          2.92069        1.79805       -0.11987
H          3.14312        1.49567        1.60426
C          3.33786       -0.26530        0.34221
H          3.21102       -0.95605        1.18709
H          4.41409       -0.16063        0.16438
C          2.66148       -0.86115       -0.89060
H          3.07794       -1.84651       -1.11993
H          2.86088       -0.21793       -1.75762
N          1.20493       -0.99960       -0.76759
H          1.01488       -1.63038        0.01327
H          0.73672        0.96364       -1.26035
