17
id_1099_cb.log	Energy: -493439.5471358
C          2.05866        1.67218        0.00765
H          2.64857        1.39258       -0.87170
H          2.64085        1.38812        0.89074
H          1.94352        2.75857        0.00990
C          0.70982        1.00820        0.00012
C         -0.47562        1.75129        0.00023
H         -0.40454        2.83588        0.00718
C         -1.72998        1.15601       -0.00459
H         -2.62681        1.76909       -0.00305
C         -1.85251       -0.23994       -0.00994
C         -0.68328       -1.01113       -0.00819
H         -0.74621       -2.09507       -0.00939
C          0.55274       -0.37957       -0.00384
Cl         1.98539       -1.39738        0.00186
N         -3.10259       -0.85154       -0.08035
H         -3.11868       -1.78871        0.30820
H         -3.84910       -0.28631        0.31035
