12
id_1985_cb.log	Energy: -192571.5658121
C          0.00003       -1.81900        0.00000
H         -0.00000       -2.90489        0.00000
C          1.20077       -1.10096        0.00000
H          2.14895       -1.63513        0.00000
C          1.20707        0.29119       -0.00000
H          2.15068        0.83384       -0.00000
C         -0.00000        1.04674       -0.00000
C         -1.20708        0.29117       -0.00000
H         -2.15069        0.83382       -0.00000
C         -1.20074       -1.10097        0.00000
H         -2.14887       -1.63522        0.00000
O         -0.00005        2.35733       -0.00000
