16
id_1127_cb.log	Energy: -680359.0503139
C         -0.00752        2.70163        0.00777
H          0.04876        3.78458        0.01148
C          1.15658        1.94558        0.00658
H          2.13164        2.41707        0.00952
C          1.05182        0.55771        0.00373
C         -0.16860       -0.12405        0.00194
C         -1.30972        0.67990        0.00059
C         -1.24889        2.06969        0.00389
H         -2.16551        2.65078        0.00336
Cl        -2.88323       -0.08055       -0.00740
C         -0.33520       -1.64784       -0.00310
O         -0.40649       -2.18660       -1.13180
O         -0.44039       -2.19084        1.12071
N          2.30464       -0.20659        0.00284
O          3.35863        0.41098       -0.03221
O          2.24284       -1.42511        0.03744
