22
id_1549_ca.log	Energy: -633433.9109720
C         -3.28835       -1.32272        0.01081
H         -4.26304       -1.80059        0.02288
C         -2.11679       -2.11651       -0.01171
H         -2.20300       -3.19888       -0.01538
C         -0.86931       -1.53845       -0.02896
H          0.00785       -2.17514       -0.04752
C         -0.73330       -0.12321       -0.02435
C         -1.91364        0.67769        0.00299
C         -3.18596        0.04589        0.01884
H         -4.07335        0.67312        0.03807
C         -1.81096        2.09627        0.01672
H         -2.72916        2.67772        0.03586
C         -0.59130        2.72263        0.00748
H         -0.52091        3.80496        0.01929
C          0.59368        1.95202       -0.01870
H          1.56071        2.44336       -0.02632
C          0.51260        0.58044       -0.03659
S          2.04389       -0.30409       -0.10673
O          3.14888        0.64040       -0.02282
O          2.02793       -1.27385       -1.19124
O          2.04055       -1.20844        1.21889
H          2.19981       -0.66832        2.02289
