31
id_1515_cb.log	Energy: -351481.3839739
C          3.88240        0.29639        0.16468
H          4.92890        0.52972        0.33519
C          2.94590        1.31976        0.03557
H          3.25992        2.35688        0.10814
C          1.60257        1.02151       -0.18875
H          0.89120        1.83784       -0.28623
C          1.16581       -0.30553       -0.28762
C          2.11983       -1.32182       -0.15290
H          1.79943       -2.35857       -0.22918
C          3.46315       -1.02953        0.06974
H          4.18286       -1.83735        0.16466
C         -0.28845       -0.68457       -0.47989
C         -1.10112        0.25064       -1.42281
H         -1.37418       -0.28958       -2.33437
H         -0.50431        1.11525       -1.72820
N         -2.33844        0.75373       -0.80936
C         -1.98844        1.51280        0.40288
H         -1.37135        2.36278        0.09342
H         -2.91416        1.91925        0.82160
C         -1.24480        0.64387        1.45053
H         -0.27894        1.08576        1.71406
H         -1.82733        0.56900        2.37510
C         -1.05781       -0.75866        0.86241
H         -0.50973       -1.40061        1.56023
C         -2.44561       -1.34215        0.57092
H         -3.00970       -1.43387        1.50533
H         -2.34608       -2.34730        0.14699
C         -3.17262       -0.39524       -0.42009
H         -4.09316       -0.00236        0.02222
H         -3.45149       -0.92934       -1.33358
H         -0.29772       -1.69833       -0.89795
