22
id_1510_ca.log	Energy: -324241.4512853
C          0.50701        2.72331       -0.00000
H          1.51062        3.14131       -0.00000
H         -0.02829        3.04018        0.89573
H         -0.02829        3.04017       -0.89574
N          0.61817        1.25113       -0.00000
C          1.82921        0.70441        0.00000
H          2.67893        1.37964        0.00000
C          2.01046       -0.68776        0.00000
C          0.90426       -1.50362        0.00000
H          1.02045       -2.58394        0.00000
C         -0.38396       -0.93010       -0.00000
C         -0.52779        0.48203       -0.00000
C         -1.81359        1.07173       -0.00000
H         -1.93280        2.14831       -0.00000
C         -2.92097        0.25765       -0.00000
H         -3.90891        0.70698       -0.00000
C         -2.79574       -1.15375       -0.00000
H         -3.68875       -1.77030       -0.00000
C         -1.55472       -1.73571       -0.00000
H         -1.43590       -2.81505       -0.00000
O          3.25255       -1.23373        0.00001
H          3.94036       -0.54449        0.00002
