23
id_1342_cb.log	Energy: -207307.8358203
C         -1.86612        1.42371       -0.11747
H         -1.78858        2.45652        0.23594
H         -2.77277        0.99443        0.31595
H         -1.97871        1.44411       -1.20731
C         -0.60756        0.65685        0.27408
C          0.63730        1.45041       -0.12931
H          0.61368        1.60444       -1.21688
H          0.58912        2.43928        0.34000
C          1.92410        0.73057        0.26426
H          2.80136        1.28333       -0.08797
H          1.98876        0.68393        1.35985
C          1.90918       -0.68868       -0.29551
H          2.77380       -1.26075        0.05745
H          1.96119       -0.65543       -1.39088
C          0.62997       -1.40137        0.11984
H          0.61776       -1.51431        1.22208
H          0.60427       -2.41008       -0.30501
N         -0.57046       -0.68791       -0.33147
C         -1.73917       -1.46399        0.06899
H         -1.62904       -2.49232       -0.28633
H         -2.65168       -1.05684       -0.37073
H         -1.86567       -1.49420        1.16633
H         -0.59649        0.54832        1.37851
