26
id_1183_cb.log	Energy: -372659.3930378
C         -3.84101       -1.65911        0.70301
H         -2.82428       -2.05841        0.76629
H         -4.08266       -1.19774        1.66657
H         -4.52314       -2.49993        0.54998
C         -3.96478       -0.64276       -0.42784
H         -4.99526       -0.27823       -0.49762
H         -3.72345       -1.10825       -1.38994
C         -3.07353        0.56508       -0.22764
H         -3.19226        1.29913       -1.02956
H         -3.27484        1.05700        0.72946
O         -1.70952        0.10113       -0.22729
C         -0.76569        1.02739       -0.01806
O         -1.03386        2.20632        0.15540
C          0.60162        0.47487       -0.02132
C          0.85847       -0.89105       -0.20128
H          0.03495       -1.58282       -0.34469
C          2.15609       -1.37049       -0.19384
H          2.35090       -2.43021       -0.33172
C          3.24173       -0.49365       -0.00712
C          2.98053        0.87790        0.17614
H          3.81257        1.56025        0.32434
C          1.68043        1.34809        0.16823
H          1.48663        2.40638        0.31300
N          4.53528       -0.96017       -0.05857
H          4.65597       -1.94690        0.13798
H          5.23182       -0.37630        0.38937
