25
id_1273_ca.log	Energy: -325607.1811297
C         -3.63604       -0.11251       -0.02821
H         -4.72106       -0.08446       -0.01695
C         -2.92133        0.81807       -0.77889
H         -3.44566        1.56804       -1.36254
C         -1.52910        0.78322       -0.79394
H         -0.98159        1.48941       -1.41330
C         -0.83669       -0.18338       -0.05418
C         -1.56328       -1.12041        0.69109
H         -1.03091       -1.87131        1.26812
C         -2.95407       -1.08330        0.70434
H         -3.50595       -1.81197        1.28970
C          0.64829       -0.25396       -0.07437
C          1.29247       -1.46460       -0.35667
H          0.68351       -2.33703       -0.57328
C          2.67989       -1.55792       -0.38095
H          3.15022       -2.50852       -0.60972
C          3.46305       -0.43719       -0.11543
H          4.54534       -0.50334       -0.13135
C          2.85082        0.77497        0.18499
H          3.43997        1.65695        0.41861
C          1.46580        0.84520        0.20098
N          0.85669        2.13538        0.56489
H         -0.00777        2.00983        1.10925
H          1.50362        2.69566        1.13569
H          0.61464        2.69993       -0.26109
