18
id_1476_cb.log	Energy: -241889.6313111
C          2.52412        0.76845        0.00000
H          3.37624        0.08174        0.00000
H          2.61092        1.42018        0.87864
H          2.61092        1.42018       -0.87864
C          1.22286        0.01155        0.00000
C          1.20091       -1.38342        0.00000
H          2.14898       -1.92042        0.00000
C         -0.00002       -2.09831        0.00000
H          0.00001       -3.18467        0.00000
C         -1.20092       -1.38341        0.00000
H         -2.14902       -1.92037        0.00000
C         -1.22286        0.01157        0.00000
C         -0.00000        0.75065        0.00000
O          0.00003        2.06349        0.00000
C         -2.52413        0.76848        0.00000
H         -2.61093        1.42022       -0.87864
H         -2.61093        1.42022        0.87864
H         -3.37625        0.08178        0.00000
