25
id_1314_ca.log	Energy: -278567.9008890
C         -3.08354        0.32783       -0.03067
H         -4.10206        0.70315       -0.05224
C         -2.83952       -1.04531        0.01905
H         -3.66583       -1.74930        0.03390
C         -1.52977       -1.50844        0.04705
H         -1.33139       -2.57699        0.08356
C         -0.44836       -0.62050        0.02928
C         -0.69086        0.75902       -0.02228
C         -2.01407        1.21471       -0.05115
H         -2.19806        2.28590       -0.08979
C          0.44192        1.76269       -0.08189
H          0.53669        2.12905       -1.11217
H          0.19519        2.63237        0.53444
C          1.78056        1.17528        0.35991
H          1.78546        1.00059        1.44325
H          2.59402        1.86831        0.12354
C          1.98914       -0.15140       -0.34950
C          0.95929       -1.17805        0.09569
H          1.03376       -2.08230       -0.51748
H          1.18358       -1.47111        1.13092
N          3.36120       -0.67569       -0.04705
H          4.08531       -0.01708       -0.35750
H          3.52932       -1.57449       -0.51449
H          1.95711       -0.01213       -1.43327
H          3.47968       -0.82113        0.96373
