21
id_1488_cb.log	Energy: -323957.2146828
C         -3.60773       -1.04693       -0.00001
H         -4.15844       -0.75016       -0.89323
H         -4.15824       -0.75053        0.89347
H         -3.44117       -2.12195       -0.00026
N         -2.30321       -0.36185       -0.00001
C         -2.30546        1.01076       -0.00001
H         -3.28028        1.48166       -0.00002
C         -1.12122        1.69175        0.00001
H         -1.13308        2.77730        0.00000
C          0.10678        0.99479        0.00001
C          1.37329        1.63855       -0.00000
H          1.41077        2.72518       -0.00001
C          2.52423        0.89965       -0.00000
H          3.49078        1.39874       -0.00002
C          2.53622       -0.55277        0.00002
C          1.27825       -1.18569        0.00002
H          1.22518       -2.27173        0.00001
C          0.08808       -0.43394        0.00002
C         -1.17651       -1.06269        0.00001
H         -1.27447       -2.14314        0.00002
O          3.65822       -1.19167       -0.00003
