13
id_1400_ca.log	Energy: -250087.1500357
C          0.66334       -1.18980        0.00000
H          1.18588       -2.14072        0.00000
C         -0.71731       -1.17119        0.00000
H         -1.32711       -2.06598        0.00000
N         -1.40468       -0.00905        0.00000
O         -2.73004       -0.02172       -0.00000
C         -0.74003        1.16862        0.00000
H         -1.36840        2.05045        0.00000
C          0.63774        1.21348        0.00000
H          1.14638        2.17089        0.00000
C          1.36108        0.01915       -0.00000
O          2.71239        0.09665       -0.00001
H          3.10829       -0.79228        0.00001
