26
id_1564_ca.log	Energy: -208354.7812260
C         -3.37109       -0.14672       -0.43359
H         -3.29906        0.43500       -1.35955
H         -3.68640        0.53096        0.36514
H         -4.16397       -0.88905       -0.56622
C         -2.04259       -0.82589       -0.11293
H         -1.84149       -1.59690       -0.86733
H         -2.11517       -1.34588        0.85229
C         -0.84226        0.12895       -0.06398
C         -0.99584        1.17763        1.03757
H         -0.17835        1.90678        1.02933
H         -1.00794        0.69591        2.02327
H         -1.92677        1.73984        0.92315
C          0.43483       -0.70406        0.11475
H          0.53017       -1.41065       -0.72120
H          0.34032       -1.30473        1.02855
C          1.74567        0.06116        0.24181
C          2.94898       -0.85949        0.32934
H          3.00722       -1.50201       -0.55540
H          2.85029       -1.49544        1.21217
H          3.87819       -0.28905        0.41652
N          1.92737        0.95061       -0.96251
H          1.20526        1.67848       -1.01553
H          1.88270        0.39903       -1.82916
H         -0.79985        0.64516       -1.03566
H          1.72612        0.73997        1.09659
H          2.84088        1.41889       -0.93722
