29
id_1700_ca.log	Energy: -303354.8033931
C          1.58852       -0.33974        1.48913
H          2.64876       -0.10988        1.62408
H          1.37751       -1.28718        1.99493
H          1.01712        0.45842        1.96504
C          1.32766       -0.45043       -0.01034
C          1.26931        0.92847       -0.68364
H          1.28970        0.79763       -1.77357
H          2.14182        1.50985       -0.37755
C          0.00000        1.67179       -0.33543
O          0.00000        2.77623        0.17367
C         -1.26931        0.92847       -0.68364
H         -2.14182        1.50985       -0.37755
H         -1.28971        0.79763       -1.77357
C         -1.32766       -0.45043       -0.01034
N         -0.00000       -1.15274       -0.27829
H         -0.00000       -2.04290        0.24108
C         -1.58852       -0.33974        1.48913
H         -1.01712        0.45842        1.96504
H         -1.37752       -1.28718        1.99493
H         -2.64876       -0.10987        1.62408
C         -2.39414       -1.32526       -0.65947
H         -2.19137       -1.47065       -1.72525
H         -3.36437       -0.83361       -0.55405
H         -2.44268       -2.30075       -0.16497
C          2.39414       -1.32526       -0.65947
H          2.19137       -1.47065       -1.72525
H          2.44268       -2.30075       -0.16497
H          3.36437       -0.83361       -0.55405
H         -0.00000       -1.41263       -1.27534
