26
id_1457_cb.log	Energy: -455957.6836044
C         -4.54997       -0.83870        0.40926
H         -4.76419        0.22962        0.33827
H         -5.05357       -1.27165        1.27165
H         -4.85714       -1.34605       -0.50741
O         -3.14716       -1.04351        0.64071
C         -2.31849       -0.58341       -0.30232
O         -2.71669       -0.02266       -1.30940
C         -0.87532       -0.87992       -0.00176
H         -0.75278       -1.01888        1.07522
H         -0.63485       -1.83306       -0.49013
C          0.04682        0.21926       -0.53006
C          1.49584       -0.10278       -0.22189
C          1.96151       -0.06738        1.09895
H          1.28071        0.21129        1.90186
C          3.28727       -0.37862        1.39425
H          3.63393       -0.34260        2.42324
C          4.16855       -0.73414        0.37031
H          5.20216       -0.97702        0.59961
C          3.71404       -0.77260       -0.94710
H          4.39239       -1.04609       -1.75049
C          2.38518       -0.45743       -1.23936
H          2.03405       -0.48615       -2.26834
C         -0.32993        1.60605        0.03923
O         -1.22262        1.66108        0.92737
O          0.29518        2.59655       -0.43273
H         -0.06340        0.28689       -1.61817
