28
id_14_ca.log	Energy: -703635.9019121
C         -3.13522        0.87222       -1.39746
H         -2.51484        1.25632       -2.21267
H         -4.06885        1.44293       -1.37686
H         -3.37613       -0.17522       -1.59579
C         -2.43013        1.04307       -0.05862
H         -2.23698        2.10301        0.10534
C         -3.24134        0.52060        1.12246
H         -3.50568       -0.53540        1.01170
H         -4.17296        1.09198        1.17026
H         -2.70484        0.66065        2.06520
N         -1.05063        0.45625       -0.10050
C          0.06230        1.28984       -0.03327
O         -0.07266        2.50658       -0.03889
C          1.41798        0.66744       -0.00343
C          2.51180        1.49050        0.28836
H          2.33443        2.52932        0.54638
C          3.80356        0.98346        0.23552
H          4.64664        1.62712        0.46445
C          4.01573       -0.35213       -0.11684
H          5.02505       -0.74882       -0.16512
C          2.93710       -1.18796       -0.38838
H          3.08131       -2.23308       -0.64373
C          1.64553       -0.67573       -0.32277
N          0.54598       -1.54675       -0.60254
H          0.39486       -1.75997       -1.59304
S         -0.85532       -1.19614        0.17366
O         -0.65180       -1.40714        1.59692
O         -1.92656       -1.89881       -0.50639
