25
id_1451_ca.log	Energy: -299441.5696752
C          3.59642       -0.94688       -0.31026
H          4.42283       -0.31180        0.02826
H          4.01531       -1.73892       -0.93780
H          3.16057       -1.42614        0.57360
C          2.56269       -0.13018       -1.08168
H          1.71360       -0.77006       -1.35343
H          2.99921        0.21769       -2.02398
C          2.05270        1.08933       -0.31252
H          1.31367        1.62297       -0.92183
H          2.87568        1.79106       -0.13271
C          1.45697        0.74568        1.05522
H          1.01466        1.62775        1.52996
H          2.23280        0.38636        1.73235
N          0.45741       -0.32220        0.99858
H          0.77634       -1.27669        1.13416
C         -0.75351       -0.22600        0.46483
N         -1.48805       -1.34617        0.30698
C         -2.70388       -1.21468       -0.18582
H         -3.27093       -2.13383       -0.30194
C         -3.28218        0.01502       -0.55743
H         -4.28446        0.07725       -0.95662
C         -2.50777        1.12369       -0.39011
H         -2.80882        2.13501       -0.63235
N         -1.25507        0.98785        0.11413
H         -0.68918        1.82695        0.23111
