25
id_1276_cb.log	Energy: -349239.3476254
C          3.86721       -0.19798        0.00620
H          4.92500       -0.44249        0.00903
C          3.46586        1.13973        0.00549
H          4.21547        1.92543        0.00788
C          2.11234        1.47790        0.00170
H          1.80324        2.51965        0.00099
C          1.16664        0.45420       -0.00119
C          1.57037       -0.89430       -0.00018
C          2.91823       -1.22454        0.00331
H          3.23385       -2.26441        0.00394
C          0.35931       -1.80078       -0.00307
H          0.33559       -2.45470        0.87670
H          0.33988       -2.45477       -0.88292
C         -0.79115       -0.81860       -0.00625
C         -0.30097        0.49923       -0.00519
C         -1.19159        1.57137       -0.00349
H         -0.82931        2.59606        0.00212
C         -2.55869        1.31968       -0.00455
H         -3.26626        2.14461       -0.00199
C         -3.05423        0.00303       -0.00699
C         -2.15250       -1.07452       -0.00667
H         -2.53384       -2.09310       -0.00575
N         -4.42792       -0.22925       -0.07383
H         -4.70734       -1.12232        0.31833
H         -4.98580        0.52433        0.31379
