14
id_1402_cb.log	Energy: -133334.0145759
C          0.77419        1.01981       -0.07096
H          1.19474        1.69265        0.68092
H          1.15940        1.33293       -1.04565
C         -0.77420        1.01981       -0.07093
H         -1.15945        1.33298       -1.04559
H         -1.19472        1.69261        0.68099
C         -1.14627       -0.45050        0.20360
H         -2.05760       -0.76962       -0.30603
H         -1.29081       -0.60610        1.27832
N          0.00001       -1.27003       -0.22319
H          0.00002       -1.24140       -1.24502
C          1.14627       -0.45048        0.20362
H          1.29078       -0.60606        1.27836
H          2.05763       -0.76960       -0.30597
