21
id_1163_ca.log	Energy: -323620.7612127
C          3.85197        0.06782        0.00632
H          4.04989       -0.52482       -0.88850
H          4.04482       -0.52970        0.89904
H          4.46129        0.96917        0.01054
O          2.49075        0.52317        0.00386
C          1.56509       -0.43425       -0.00265
O          1.82910       -1.62069       -0.00734
C          0.17451        0.10387       -0.00216
C         -0.09073        1.47452        0.00168
H          0.72844        2.18435        0.00360
C         -1.40696        1.92628       -0.00047
H         -1.61663        2.98993       -0.00126
C         -2.46090        1.01723       -0.00465
H         -3.49290        1.35420       -0.00902
C         -2.16822       -0.33934       -0.00793
C         -0.87148       -0.81882       -0.00762
H         -0.66586       -1.88505       -0.01365
N         -3.27753       -1.30244        0.01103
H         -3.03091       -2.17172       -0.48045
H         -4.11783       -0.91621       -0.43972
H         -3.53602       -1.55684        0.97494
