21
id_1838_cb.log	Energy: -728567.3059890
C          2.46250       -1.80214        0.17572
H          2.81465       -2.80247        0.40787
C          3.23389       -0.70631        0.53959
H          4.18203       -0.84840        1.05103
C          2.80433        0.59954        0.25252
C          1.58636        0.77415       -0.41996
H          1.24628        1.77613       -0.66505
C          0.82215       -0.33708       -0.77007
C          1.24173       -1.63512       -0.47776
H          0.62858       -2.48733       -0.74985
S         -0.73355       -0.10083       -1.62453
C         -1.71292        0.51397       -0.23153
C         -1.71214       -0.37387        1.01237
H         -0.73404       -0.43311        1.49047
F         -2.14108       -1.60772        0.66612
F         -2.61331        0.15450        1.87498
F         -1.31043        1.74398        0.16813
F         -2.98630        0.62797       -0.67164
N          3.54150        1.69850        0.67447
H          3.38078        2.53851        0.12907
H          4.53267        1.51288        0.78419
