28
id_1037_cb.log	Energy: -232716.8199433
C         -2.83146        1.06267        0.89390
H         -3.57650        0.32457        1.21639
H         -3.35735        1.87739        0.38756
H         -2.34649        1.46456        1.78909
C         -1.81422        0.41087       -0.03249
C         -1.03592       -0.67991        0.71335
H         -0.52912       -0.22384        1.57478
H         -1.76207       -1.39667        1.12361
C         -0.01802       -1.43709       -0.14431
H          0.49686       -2.17225        0.48548
H         -0.54943       -2.01764       -0.90898
C          1.01405       -0.54163       -0.83832
H          0.51599        0.06529       -1.60753
H          1.73319       -1.17937       -1.37205
C          1.79812        0.39380        0.09019
H          1.08933        1.09082        0.55956
C          2.51428       -0.37794        1.19787
H          3.12301        0.29454        1.81195
H          3.18211       -1.13436        0.76600
H          1.81056       -0.89059        1.86179
C          2.79972        1.21430       -0.72109
H          2.30009        1.77880       -1.51608
H          3.54114        0.55659       -1.19152
H          3.33830        1.92617       -0.08649
N         -2.50779       -0.06892       -1.23818
H         -3.09459       -0.85650       -0.95348
H         -1.81338       -0.47723       -1.86455
H         -1.10639        1.18166       -0.36289
