24
id_180_ca.log	Energy: -254650.4761934
C         -3.46195       -0.74596       -0.96842
H         -4.32458       -0.30792       -0.45824
H         -3.68483       -1.79288       -1.18583
H         -3.30652       -0.22298       -1.91642
C         -2.22252       -0.67411       -0.10111
H         -1.35012       -1.09644       -0.60086
H         -2.36082       -1.17346        0.85981
N         -1.89569        0.75425        0.20891
H         -1.70708        1.25177       -0.67113
C         -0.73452        0.94775        1.14609
H         -0.68457        2.01918        1.34675
H         -0.99287        0.41905        2.06514
C          0.54428        0.43351        0.54593
C          1.06760       -0.79746        0.94596
H          0.54849       -1.37772        1.70453
C          2.24747       -1.27547        0.37986
H          2.65096       -2.23134        0.69859
C          2.90673       -0.52593       -0.59234
H          3.82676       -0.89728       -1.03283
C          2.38706        0.70347       -0.99699
H          2.90167        1.29097       -1.75073
C          1.21097        1.18312       -0.42742
H          0.80701        2.14565       -0.73300
H         -2.72435        1.20012        0.62243
