11
id_1996_ca.log	Energy: -271837.0695185
C          0.78900        0.82617        0.00004
H          0.82759        1.44466        0.89529
H          0.82759        1.44473       -0.89517
C         -0.48501        0.01766        0.00001
F         -1.54090        0.82939        0.00003
F         -0.56192       -0.77283       -1.07855
F         -0.56192       -0.77293        1.07848
N          1.96066       -0.08446       -0.00000
H          1.97372       -0.68806        0.83303
H          2.83152        0.46227        0.00003
H          1.97373       -0.68797       -0.83309
