31
id_1969_ca.log	Energy: -1081530.4744676
C         -5.48014        0.46905       -0.37208
H         -5.24847        1.41033        0.13743
H         -6.55346        0.45026       -0.58466
H         -4.94572        0.45964       -1.32794
C         -5.08446       -0.72794        0.49930
H         -5.36775       -1.65819       -0.00562
H         -5.62481       -0.69198        1.45010
C         -3.60643       -0.74230        0.78503
C         -3.07664       -0.50890        1.99274
H         -2.00361       -0.51290        2.16775
H         -3.71641       -0.31822        2.85099
C         -2.70897       -1.07275       -0.35680
O         -3.13728       -1.63964       -1.35434
C         -1.23696       -0.77628       -0.26463
C         -0.34417       -1.84419       -0.27667
H         -0.73257       -2.85635       -0.34143
C          1.02893       -1.64189       -0.18772
H          1.69660       -2.49544       -0.18555
C          1.52892       -0.34331       -0.10438
C          0.64148        0.74798       -0.12094
C         -0.73106        0.52551       -0.19756
Cl        -1.82214        1.87650       -0.27562
Cl         1.29433        2.34933       -0.05845
O          2.84382       -0.03301       -0.01454
C          3.77136       -1.10124       -0.01466
H          3.59354       -1.77944        0.82817
H          3.72117       -1.67044       -0.94963
C          5.17270       -0.56139        0.12709
O          6.13845       -1.29789        0.09879
O          5.24545        0.75505        0.29413
H          6.18332        1.01335        0.39487
