10
id_1999_ca.log	Energy: -214786.7963071
C          1.76962       -0.75696       -0.00000
H          1.65257       -1.39587        0.88183
H          2.75236       -0.28535        0.00002
H          1.65259       -1.39583       -0.88186
C          0.70973        0.29076        0.00000
O          0.90675        1.48658        0.00000
C         -0.74670       -0.22321        0.00000
O         -1.01869       -1.40309        0.00000
O         -1.62782        0.76788       -0.00000
H         -2.53521        0.40257       -0.00000
