25
id_1723_ca.log	Energy: -1912884.2818047
C          1.11109        1.93663        1.27387
H          1.89290        1.17961        1.33951
H          0.48072        1.86375        2.16594
H          1.59249        2.91945        1.27422
C          0.25297        1.81756       -0.00000
C          1.11110        1.93663       -1.27387
H          0.48072        1.86375       -2.16594
H          1.89290        1.17961       -1.33951
H          1.59250        2.91945       -1.27422
C         -0.74334        2.98130       -0.00000
H         -1.38192        2.96654        0.88679
H         -1.38192        2.96654       -0.88680
H         -0.17441        3.91574       -0.00000
C         -0.48400        0.48203       -0.00000
C          0.15877       -0.79864       -0.00000
C         -0.62596       -1.91515       -0.00001
H         -0.24494       -2.92914       -0.00000
N         -1.96995       -1.79291       -0.00001
C         -2.55295       -0.57033       -0.00000
N         -1.80516        0.54257        0.00000
N         -3.87112       -0.47563        0.00001
H         -4.29270        0.44545       -0.00000
H         -4.46866       -1.29455        0.00001
Br         2.02046       -1.09996        0.00000
H         -2.54630       -2.63609       -0.00001
