13
id_1873_cb.log	Energy: -481118.8649101
C         -0.33108        1.96258        0.81778
H         -0.51732        3.04067        0.81480
H          0.64341        1.79354        1.28979
H         -1.09757        1.48994        1.44095
C         -0.35773        1.41741       -0.60623
H          0.43974        1.88061       -1.19833
H         -1.30548        1.66370       -1.09597
C         -0.14334       -0.09474       -0.69462
C          1.17223       -0.49693        0.00371
O          1.15759       -1.07350        1.11590
O          2.20002       -0.14122       -0.63861
Cl        -1.58681       -0.96920       -0.02673
H         -0.08842       -0.40417       -1.73901
