31
id_1621_cb.log	Energy: -408727.2829623
C         -3.36840        2.15998       -0.37790
H         -3.11247        2.66119        0.55996
H         -4.37917        2.46042       -0.66895
H         -2.67597        2.50791       -1.15413
C         -3.27806        0.64658       -0.23296
H         -3.96483        0.32382        0.55994
C         -3.67589       -0.04534       -1.53683
H         -2.96827        0.21866       -2.33265
H         -4.67550        0.27129       -1.85153
H         -3.68604       -1.13456       -1.43378
N         -1.92352        0.29542        0.22382
H         -1.26658        0.60407       -0.49682
C         -1.72316       -1.13617        0.44107
H         -2.56593       -1.50916        1.03371
H         -1.67000       -1.73071       -0.48116
C         -0.43845       -1.32923        1.25771
C          0.78806       -1.00499        0.41905
C          1.16738       -1.86876       -0.61476
H          0.59663       -2.77921       -0.78210
C          2.26344       -1.58500       -1.42383
H          2.54479       -2.26859       -2.21776
C          3.00453       -0.42627       -1.21487
H          3.86315       -0.18945       -1.83381
C          2.62671        0.43593       -0.18209
C          1.52494        0.15395        0.63570
H          1.25665        0.83222        1.43846
C          3.38502        1.63431        0.05063
N          3.99641        2.60179        0.23863
O         -0.51311       -0.53196        2.42448
H         -0.98309        0.27320        2.12764
H         -0.37545       -2.37586        1.57448
