33
id_1138_ca.log	Energy: -328607.5975835
C         -3.27173       -2.20523       -0.31685
H         -3.91799       -2.18927       -1.19781
H         -3.90903       -2.18014        0.57278
H         -2.72194       -3.15165       -0.31501
C         -2.31228       -1.01668       -0.33787
H         -2.88504       -0.08447       -0.37589
H         -1.69738       -1.05766       -1.24028
C         -1.46667       -1.05785        0.92677
H         -0.93777       -2.00828        1.02750
H         -2.11579       -0.93500        1.79666
N         -0.41575        0.02343        1.08384
C         -0.92214        1.42317        0.75801
H         -1.96878        1.44017        1.07140
H         -0.36088        2.09821        1.40773
C         -0.75065        1.83332       -0.69576
H          0.31433        1.95222       -0.91734
H         -1.13866        1.06659       -1.37126
C         -1.48278        3.15260       -0.92959
H         -2.55920        3.03588       -0.76836
H         -1.32750        3.50118       -1.95354
H         -1.11975        3.92916       -0.24854
C          0.90452       -0.24764        0.47200
C          1.05924       -1.15243       -0.56831
H          0.22340       -1.72030       -0.95788
C          2.33239       -1.33854       -1.10773
H          2.46308       -2.04597       -1.91966
C          3.42239       -0.63082       -0.61157
H          4.40858       -0.78290       -1.03762
C          3.24740        0.26844        0.43958
H          4.09348        0.81675        0.83993
C          1.98450        0.46308        0.98715
H          1.83768        1.15738        1.81010
H         -0.23565        0.04559        2.09517
