25
id_1274_ca.log	Energy: -325608.6469265
C          3.90114       -0.36302        0.05070
H          4.97291       -0.53249        0.07989
C          3.04909       -1.34966       -0.44228
H          3.45474       -2.28860       -0.80604
C          1.67482       -1.13298       -0.47959
H          1.02071       -1.89927       -0.88568
C          1.13082        0.07474       -0.02429
C          1.99533        1.06026        0.46899
H          1.58827        1.99396        0.84629
C          3.36949        0.84221        0.50616
H          4.02505        1.61331        0.89877
C         -0.33502        0.30664       -0.06344
C         -0.85849        1.57897       -0.32862
H         -0.18158        2.40383       -0.52829
C         -2.23198        1.79799       -0.36118
H         -2.61721        2.79002       -0.57085
C         -3.11918        0.74997       -0.13147
H         -4.19418        0.90094       -0.14927
C         -2.58690       -0.50326        0.12713
C         -1.22493       -0.74874        0.16762
H         -0.86035       -1.74565        0.39916
N         -3.50840       -1.62522        0.36032
H         -4.38614       -1.30680        0.79166
H         -3.09470       -2.33127        0.98298
H         -3.75384       -2.10020       -0.51924
