22
id_1272_cb.log	Energy: -583959.3237398
C         -1.55640        1.15934        0.29512
H         -2.10391        2.09384        0.38742
C         -0.18003        1.18430        0.11328
H          0.35548        2.12721        0.05808
C          0.50018       -0.02771       -0.00566
C         -0.16173       -1.25023        0.05670
H          0.38899       -2.17984       -0.04165
C         -1.54195       -1.25243        0.23557
H         -2.07594       -2.19769        0.28017
C         -2.25089       -0.05486        0.35795
C         -3.75737       -0.05990        0.47759
H         -4.07216        0.73544        1.15856
H         -4.08567       -1.01008        0.90671
N         -4.45400        0.13298       -0.80151
H         -4.12324       -0.58746       -1.44393
H         -4.12483        1.01129       -1.20375
S          2.26258       -0.00119       -0.19862
O          2.60931        1.19104       -0.96984
O          2.68669       -1.31709       -0.67094
N          2.95731        0.20058        1.28663
H          2.68863        1.08903        1.71288
H          2.74925       -0.58029        1.91076
