23
id_1185_cb.log	Energy: -254366.7866512
C          2.61809       -1.03871       -0.91978
H          1.67652       -1.33126       -1.39553
H          2.90880       -1.84216       -0.23325
H          3.38125       -0.97046       -1.70095
C          2.47501        0.28413       -0.17422
H          2.18570        1.07188       -0.88177
H          3.44547        0.57926        0.24049
C          1.45613        0.21110        0.97716
H          1.48379        1.14866        1.54613
H          1.76691       -0.58550        1.66321
C          0.04557       -0.06484        0.51579
C         -0.47622       -1.35908        0.54858
H          0.15489       -2.15753        0.93370
C         -1.76785       -1.64742        0.11097
H         -2.14693       -2.66348        0.15059
C         -2.56208       -0.61001       -0.37305
H         -3.57233       -0.80763       -0.71948
C         -2.06486        0.68794       -0.41968
H         -2.68226        1.49922       -0.79787
C         -0.76517        0.97675        0.01794
N         -0.31527        2.30236        0.03177
H          0.68202        2.40550       -0.11989
H         -0.82867        2.89781       -0.61005
