25
id_1417_cb.log	Energy: -302156.9568673
C          3.34865        0.72061       -0.46849
H          4.25484        1.17660       -0.85516
C          2.42036        1.49145        0.23309
H          2.60300        2.54976        0.39401
C          1.25873        0.90605        0.72709
H          0.53036        1.50740        1.26691
C          1.00930       -0.45736        0.53513
C          1.93997       -1.21914       -0.17299
H          1.75139       -2.27801       -0.33180
C          3.10509       -0.63515       -0.67152
H          3.82049       -1.24137       -1.21917
C         -0.26940       -1.07456        1.06958
H         -0.33459       -0.92776        2.15246
H         -0.25602       -2.15389        0.87853
C         -1.47992       -0.46570        0.43055
C         -2.47642        0.22303        1.00113
H         -2.59488        0.38217        2.06591
C         -3.48401        0.60255       -0.06086
H         -3.86343        1.62484        0.02288
H         -4.35246       -0.07094       -0.04182
C         -2.65558        0.40145       -1.34133
H         -2.14523        1.33857       -1.59983
H         -3.25235        0.08354       -2.19823
N         -1.66679       -0.62977       -0.96318
H         -0.79419       -0.54193       -1.48076
