34
id_1643_ca.log	Energy: -375809.4031401
C          4.42597       -1.63060       -0.39221
H          5.34275       -1.09338       -0.13035
H          4.48858       -1.87876       -1.45729
H          4.40063       -2.56621        0.17180
C          3.20898       -0.79053       -0.10951
C          3.12655        0.52467       -0.57959
H          3.95878        0.94438       -1.13934
C          2.00058        1.30326       -0.34173
H          1.96683        2.32277       -0.71416
C          0.91445        0.79204        0.37868
C          0.99639       -0.51731        0.85944
H          0.18381       -0.95268        1.43574
C          2.12819       -1.29433        0.61484
H          2.16758       -2.31175        0.99473
C         -0.28774        1.68704        0.64148
C         -1.59404        0.93791        0.89134
H         -2.39750        1.65786        1.05558
H         -1.52369        0.27961        1.75632
N         -1.98450        0.12263       -0.29576
H         -1.27212       -0.60048       -0.47432
C         -3.33445       -0.55295       -0.20936
H         -4.04098        0.25448       -0.00125
C         -3.32474       -1.57162        0.91670
H         -4.27062       -2.11860        0.89788
H         -3.22421       -1.10773        1.90022
H         -2.51068       -2.29113        0.77344
C         -3.62228       -1.18096       -1.56195
H         -2.89871       -1.97386       -1.77891
H         -3.58409       -0.43530       -2.36177
H         -4.62221       -1.62045       -1.54672
O         -0.47529        2.64261       -0.39400
H         -0.20534        2.24728       -1.23973
H         -0.10648        2.26776        1.55331
H         -1.98563        0.73714       -1.12158
