20
id_1863_ca.log	Energy: -240064.1420986
C          3.32504       -0.07592        0.28428
H          3.80860       -0.59535       -0.54905
H          3.55213       -0.63735        1.19575
H          3.75511        0.92382        0.37035
C          1.84084       -0.01486        0.06615
C          1.17315        1.20861       -0.03500
H          1.73101        2.13537        0.04688
C         -0.19854        1.21938       -0.24654
H         -0.74175        2.15689       -0.33537
C         -0.87232        0.00402       -0.35313
C         -0.12155       -1.16450       -0.23573
H         -0.61748       -2.13021       -0.31859
N          1.19627       -1.18964       -0.03266
C         -2.35478       -0.06254       -0.56459
H         -2.65588       -0.99767       -1.03654
H         -2.72199        0.77822       -1.15294
N         -3.07150       -0.00330        0.75461
H         -2.86064        0.87204        1.24843
H         -2.78511       -0.78168        1.36010
H         -4.08845       -0.05865        0.62468
