16
id_1932_cb.log	Energy: -251355.9969650
C         -1.46169        0.58388       -0.93074
H         -0.89908        0.41710       -1.85562
H         -2.38753        1.10237       -1.19419
C         -0.60859        1.37578        0.06850
H         -1.24597        1.90410        0.78657
H          0.05343        2.10444       -0.40713
C          0.14407        0.25388        0.80866
N         -0.85727       -0.80709        0.99090
H         -1.42997       -0.50772        1.77845
C         -1.72663       -0.76205       -0.21332
H         -1.49374       -1.60320       -0.87142
H         -2.76973       -0.86444        0.09617
C          1.36495       -0.18094       -0.01589
O          1.35334       -1.28971       -0.61547
O          2.32028        0.65111       -0.05414
H          0.51184        0.58242        1.78452
