14
id_1704_ca.log	Energy: -479134.3658266
C         -0.58930        1.40912       -0.00001
H         -1.37953        2.14778       -0.00003
C          0.71987        1.78286       -0.00000
H          1.05085        2.81277       -0.00001
N          1.70879        0.84936        0.00001
C          1.47459       -0.48411       -0.00001
C          0.12890       -0.92019        0.00001
H         -0.07700       -1.98391        0.00000
C         -0.86338        0.02282        0.00001
Cl        -2.51534       -0.49177       -0.00000
N          2.50166       -1.32537        0.00001
H          3.46005       -0.99563       -0.00006
H          2.33273       -2.32357       -0.00006
H          2.67641        1.17166        0.00003
