39
id_1968_ca.log	Energy: -471564.4340772
C         -0.86632        3.24329        0.00408
H         -1.13522        4.19885       -0.45381
H          0.14476        2.99128       -0.32990
H         -0.84108        3.38793        1.08813
C         -1.87710        2.17769       -0.40693
H         -1.83793        2.03026       -1.48956
H         -2.89211        2.51139       -0.16455
C         -1.68672        0.82793        0.30985
C         -2.18911        0.89569        1.74675
H         -1.74551        1.75191        2.26037
H         -1.91949       -0.00475        2.30839
H         -3.27691        1.00928        1.75253
C         -2.43017       -0.23488       -0.50358
H         -1.94075       -0.42106       -1.46085
H         -3.44178        0.13600       -0.68513
N         -2.59204       -1.57391        0.15601
C         -3.49068       -2.43063       -0.67411
H         -3.64446       -3.37268       -0.14949
H         -2.99924       -2.60155       -1.63262
H         -4.43787       -1.91126       -0.81418
C         -1.29746       -2.27754        0.40234
H         -1.52317       -3.28288        0.75659
H         -0.72346       -1.73538        1.15089
H         -0.75483       -2.31998       -0.54407
O         -0.27781        0.49835        0.45806
C          0.53410        0.39503       -0.59962
O          0.18197        0.57650       -1.74983
C          1.92139        0.02163       -0.20935
C          2.27857       -0.20353        1.12350
H          1.53838       -0.10314        1.90970
C          3.58861       -0.55386        1.43434
H          3.86878       -0.72885        2.46792
C          4.53842       -0.67824        0.42108
H          5.55985       -0.95070        0.66793
C          4.18106       -0.45348       -0.90832
H          4.92108       -0.55060       -1.69598
C          2.87346       -0.10418       -1.22474
H          2.58013        0.07346       -2.25420
H         -3.05646       -1.43848        1.06223
