35
id_1286_ca.log	Energy: -423483.2719554
C          2.03553       -0.06538        2.40871
H          1.69528        0.90858        2.77897
H          2.78856       -0.44165        3.10349
H          1.18129       -0.75015        2.43779
C          2.62461        0.04798        1.02688
C          3.96079       -0.28759        0.78653
H          4.55892       -0.65309        1.61599
C          4.52960       -0.15796       -0.47661
H          5.56967       -0.42806       -0.62795
C          3.77160        0.32448       -1.54129
H          4.21120        0.43887       -2.52609
C          2.43949        0.66597       -1.33599
H          1.83212        1.05284       -2.14916
C          1.89413        0.51424       -0.06752
N          0.47355        0.86485        0.10991
H          0.21828        0.81855        1.10630
C         -0.48875       -0.01038       -0.66341
C         -0.32175       -1.49611       -0.31310
H          0.42899       -1.98750       -0.93352
H         -0.01454       -1.58081        0.73564
C         -1.73826       -2.08521       -0.47395
H         -1.91852       -2.92685        0.19900
H         -1.89448       -2.44175       -1.49855
C         -2.63527       -0.90249       -0.19609
C         -1.92311        0.29381       -0.30563
C         -2.54049        1.52677       -0.12326
H         -1.98451        2.45653       -0.21724
C         -3.89919        1.54738        0.19272
H         -4.40076        2.49675        0.35085
C         -4.61706        0.35502        0.30639
H         -5.67376        0.38773        0.55349
C         -3.99228       -0.87705        0.10823
H         -4.55540       -1.80159        0.19806
H         -0.28243        0.19299       -1.71753
H          0.32765        1.84376       -0.17473
