18
id_1343_ca.log	Energy: -1902092.3073028
C          2.96037        1.23748        0.00439
H          3.80784        1.91568       -0.01652
C          3.11553       -0.09355       -0.37728
H          4.08318       -0.46797       -0.69681
C          2.02163       -0.95685       -0.34857
H          2.13364       -1.99530       -0.64327
C          0.78378       -0.47234        0.05923
C          0.59903        0.85500        0.45723
C          1.71159        1.70060        0.41354
H          1.58735        2.73895        0.70988
C         -0.73690        1.37857        0.91361
H         -0.63773        2.43342        1.19650
H         -1.10543        0.84376        1.79419
C         -1.83572        1.33132       -0.12276
O         -3.01840        1.24919        0.15048
O         -1.39271        1.44911       -1.37886
H         -2.15677        1.45212       -1.98866
Br        -0.68969       -1.66824        0.09930
