16
id_1471_cb.log	Energy: -441054.2935262
C          0.67339       -0.81689        0.67709
H          0.42285       -1.72473        1.20930
C         -0.09931        0.29084        0.49615
N          0.50107        1.30324       -0.23595
C          1.70253        0.96265       -0.59059
H          2.36843        1.59539       -1.16550
S          2.20946       -0.60720       -0.07563
C         -1.51250        0.45674        0.97022
H         -1.73153       -0.30423        1.72527
H         -1.62388        1.44109        1.43689
C         -2.51472        0.32808       -0.17686
H         -2.31223        1.11928       -0.91333
H         -3.52067        0.50432        0.21468
N         -2.47062       -1.02192       -0.74492
H         -1.54639       -1.15688       -1.15600
H         -3.11754       -1.05683       -1.53123
