27
id_1243_ca.log	Energy: -396696.6572446
N         -0.25823        2.28678       -0.18603
H         -1.08807        2.86504       -0.06642
C         -0.31968        0.99087       -0.11646
C         -1.63133        0.34956        0.01732
C         -2.75800        0.92703       -0.58760
H         -2.65303        1.81370       -1.20612
C         -4.00344        0.33443       -0.43214
H         -4.87158        0.77182       -0.91319
C         -4.13347       -0.82403        0.33448
H         -5.10952       -1.28252        0.45735
C         -3.01648       -1.39911        0.93880
H         -3.12121       -2.29705        1.53805
C         -1.76273       -0.82308        0.77535
H         -0.89377       -1.26103        1.25517
C          0.92519        0.21577       -0.17834
C          0.92870       -1.03854       -0.79927
H          0.01703       -1.44525       -1.22188
C          2.12808       -1.73814       -0.90216
H          2.14662       -2.70444       -1.39428
C          3.30199       -1.21163       -0.38009
H          4.23903       -1.75521       -0.44515
C          3.29002        0.03786        0.24955
C          2.10579        0.75955        0.34751
H          2.10189        1.71572        0.86452
O          4.46928        0.49388        0.75495
H          4.33786        1.36844        1.15862
H          0.62024        2.76901       -0.36588
