24
id_1849_ca.log	Energy: -254647.3695459
C         -3.47988       -0.37395        0.00000
H         -3.81595       -1.41337       -0.00001
H         -3.89740        0.12317       -0.88142
H         -3.89739        0.12314        0.88144
C         -1.97714       -0.28903       -0.00000
C         -1.18655       -1.43622       -0.00000
H         -1.65538       -2.41553       -0.00000
C          0.20497       -1.34685       -0.00000
H          0.80202       -2.25133       -0.00000
C          0.79355       -0.09400       -0.00000
C          0.04305        1.08763       -0.00000
C         -1.34295        0.95880        0.00000
H         -1.94748        1.86300        0.00000
C          0.70744        2.43800       -0.00000
H         -0.04427        3.22923       -0.00000
H          1.34233        2.57127       -0.88353
H          1.34233        2.57127        0.88353
N          2.26510        0.05096       -0.00000
H          2.54201        0.61187        0.81769
C          3.07546       -1.20090        0.00000
H          2.84058       -1.76863       -0.89826
H          2.84057       -1.76862        0.89827
H          4.12264       -0.90486        0.00000
H          2.54201        0.61187       -0.81769
