17
id_1864_ca.log	Energy: -215411.7068108
C         -2.89685       -0.03064        0.00023
H         -3.27136       -1.05645        0.00405
H         -3.29040        0.47886       -0.88455
H         -3.29021        0.48543        0.88127
C         -1.39603       -0.00728        0.00008
C         -0.67398        1.21586        0.00078
H         -1.22751        2.15079        0.00234
C          0.69402        1.25029        0.00038
H          1.24852        2.18119        0.00120
C          1.42028        0.03580       -0.00060
N          0.70788       -1.11001        0.00066
C         -0.65659       -1.15378        0.00033
H         -1.08344       -2.14894        0.00125
N          2.75323       -0.01805       -0.02088
H          3.24621       -0.89894        0.06440
H          3.28406        0.83925        0.06268
H          1.21126       -1.99628        0.00160
