17
id_1493_cb.log	Energy: -587403.9481522
C          1.94134        2.80751        0.00000
H          2.65638        3.62392        0.00000
C          2.34214        1.49624        0.00000
H          3.39645        1.22889        0.00000
C          1.37065        0.46138        0.00000
C          1.73365       -0.91051        0.00000
H          2.78274       -1.19087        0.00000
C          0.74054       -1.86224        0.00000
H          0.99196       -2.91966        0.00000
C         -0.61459       -1.48803       -0.00000
C         -1.07181       -0.15363       -0.00000
C         -0.00000        0.84698        0.00000
N         -0.37954        2.15551        0.00000
C          0.55495        3.08458        0.00000
H          0.21355        4.11749        0.00000
O         -2.31038        0.18558       -0.00000
Cl        -1.81662       -2.77215       -0.00000
