21
id_1365_ca.log	Energy: -601677.0485042
C         -1.30913        2.04174        0.80693
H         -1.49114        2.93840        1.39194
C         -0.12490        1.90654        0.08640
H          0.61598        2.70257        0.11002
C          0.12183        0.75852       -0.67645
C         -0.84120       -0.25332       -0.70542
H         -0.67115       -1.15355       -1.28978
C         -2.01921       -0.10021        0.02004
C         -2.27411        1.03385        0.78179
H         -3.20074        1.13037        1.33840
Cl        -3.21650       -1.38069       -0.03124
C          1.41188        0.61763       -1.45196
H          1.36574       -0.26947       -2.09063
H          1.53542        1.48616       -2.10742
C          2.64288        0.53882       -0.54925
H          2.70785        1.40128        0.12198
H          3.55932        0.54331       -1.15251
C          2.68684       -0.71351        0.28109
O          2.00965       -1.70807        0.09888
O          3.59945       -0.64152        1.26403
H          3.61704       -1.49093        1.74662
