24
id_169_ca.log	Energy: -254657.0500535
C         -2.19460        1.25538       -0.75102
H         -1.26908        1.28421       -1.33434
H         -2.25813        2.16962       -0.15563
H         -3.04398        1.23056       -1.43959
C         -2.22224        0.05367        0.17394
C         -1.10855        0.02141        1.22759
H         -1.25216        0.90412        1.85826
H         -1.25635       -0.86256        1.85815
C          0.28523        0.01438        0.64579
C          0.94882        1.21290        0.36039
H          0.46381        2.15789        0.59320
C          2.21932        1.20342       -0.20940
H          2.72265        2.14186       -0.42120
C          2.84600       -0.00750       -0.50278
H          3.83760       -0.01485       -0.94449
C          2.19701       -1.20703       -0.21999
H          2.68126       -2.15403       -0.43778
C          0.92591       -1.19439        0.35303
H          0.42808       -2.13340        0.58806
N         -2.13234       -1.19099       -0.66848
H         -2.17626       -2.03951       -0.09054
H         -1.24685       -1.21548       -1.19162
H         -3.18591       -0.01495        0.68124
H         -2.89968       -1.23001       -1.34955
