60
id_17_ca.log	Energy: -1419244.4598631
C          1.35948        1.75184       -2.67741
H          2.02648        0.88266       -2.68720
H          1.98610        2.63690       -2.83605
H          0.66207        1.66590       -3.51451
C          0.60974        1.84856       -1.37879
C         -0.77702        1.87248       -1.32962
H         -1.33599        1.79845       -2.26207
C         -1.47426        1.94440       -0.11416
C         -0.75037        2.05988        1.06934
H         -1.27458        2.13350        2.01945
C          0.64667        2.04952        1.05666
H          1.19109        2.13030        1.99097
C          1.31688        1.90447       -0.15853
O          2.66797        1.79690       -0.27635
C          3.45133        1.78587        0.90694
H          3.42177        2.77103        1.39141
H          3.07463        1.04207        1.61604
C          4.90530        1.45360        0.56162
O          5.28003        1.53346       -0.63342
O          5.62470        1.15088        1.55413
C         -2.96841        1.80930       -0.08916
H         -3.45588        2.41152       -0.85838
H         -3.37015        2.07244        0.89051
N         -3.41134        0.37901       -0.36802
H         -3.18041        0.18304       -1.35606
C         -2.65113       -0.62255        0.43610
H         -2.47934       -0.22264        1.43705
H         -3.24395       -1.53722        0.51070
C         -1.37695       -0.99411       -0.31562
O         -1.43095       -1.20741       -1.52440
N         -0.27392       -1.10690        0.45805
H         -0.39756       -0.84322        1.43159
C          1.05047       -1.35718        0.06256
C          1.44781       -1.50759       -1.27168
H          0.71337       -1.43899       -2.06230
C          2.78211       -1.73028       -1.59621
H          3.07098       -1.84269       -2.63608
C          3.73469       -1.80598       -0.58723
C          3.37778       -1.65275        0.74675
H          4.11928       -1.70417        1.53797
C          2.04163       -1.43278        1.05475
Cl         1.61360       -1.23474        2.73638
Cl         5.40227       -2.12310       -0.98684
C         -4.92423        0.24164       -0.25665
H         -5.30468        1.16129       -0.71566
C         -5.39405        0.16571        1.19294
H         -4.99849       -0.74237        1.66491
H         -5.03780        1.02504        1.76964
C         -6.92644        0.11035        1.21858
H         -7.26582        0.04095        2.25710
H         -7.32892        1.04656        0.80850
C         -7.45064       -1.07140        0.40117
H         -7.11622       -2.00897        0.86679
H         -8.54612       -1.07941        0.40954
C         -6.93638       -1.01223       -1.03802
H         -7.34388       -0.12108       -1.53440
H         -7.27798       -1.88302       -1.60680
C         -5.40536       -0.95198       -1.07643
H         -5.04981       -0.85953       -2.10962
H         -4.99686       -1.88313       -0.66244
