32
id_1597_cb.log	Energy: -445221.3640788
C          4.53172       -1.44317       -0.32470
H          4.51188       -1.13620       -1.37614
H          5.08199       -2.37928       -0.22907
H          5.02425       -0.66720        0.27147
O          3.22259       -1.70465        0.15646
C          2.33483       -0.65993        0.12791
C          2.63597        0.61792       -0.32580
H          3.62390        0.86910       -0.69307
C          1.64631        1.60880       -0.31023
H          1.89799        2.59993       -0.66889
C          0.36887        1.32204        0.15412
C          0.05772        0.03095        0.62756
C          1.04624       -0.94152        0.59972
H          0.82853       -1.94497        0.95661
C         -1.33791       -0.29054        1.09254
H         -1.73270        0.53169        1.69996
H         -1.31356       -1.18882        1.72141
C         -2.29238       -0.54835       -0.08232
C         -3.70976       -0.79922        0.41580
H         -4.09417        0.07767        0.94499
H         -3.69879       -1.64635        1.12087
O         -4.57613       -1.06628       -0.67553
H         -4.03116       -1.61103       -1.27480
N         -1.92152       -1.69324       -0.92237
H         -1.70836       -2.47990       -0.30505
H         -1.04931       -1.48296       -1.40563
O         -0.65545        2.23239        0.19310
C         -0.37298        3.54223       -0.27421
H         -1.29846        4.10761       -0.16492
H         -0.07426        3.52893       -1.32798
H          0.41599        4.01246        0.32265
H         -2.31301        0.33515       -0.73031
