25
id_1972_ca.log	Energy: -301831.7628944
C         -2.30495       -0.63416        1.27055
H         -1.92315       -0.05261        2.10994
H         -1.94046       -1.65929        1.31561
H         -3.39558       -0.62209        1.25501
N         -1.81835        0.00697        0.00028
C         -2.32708       -0.77511       -1.17910
H         -1.94216       -0.30846       -2.08602
H         -3.41680       -0.74008       -1.15841
H         -1.98728       -1.80617       -1.10140
C         -2.41641        1.37857       -0.07624
H         -3.49933        1.25689       -0.07423
H         -2.09409        1.85703       -1.00091
H         -2.10749        1.95414        0.79563
C         -0.32668        0.02978       -0.00859
C          0.38284        1.22505       -0.00645
H         -0.11254        2.18751       -0.00760
C          1.77708        1.20183       -0.00323
H          2.33620        2.13324       -0.00228
C          2.45381       -0.01483       -0.00091
C          1.73844       -1.21449       -0.00180
H          2.27403       -2.15843        0.00013
C          0.35171       -1.19083       -0.00487
H         -0.18503       -2.13416       -0.00409
O          3.81761       -0.09795        0.00220
H          4.20856        0.79236        0.00297
