35
id_1062_cb.log	Energy: -305936.2348619
C         -2.81522        1.51653       -1.12397
H         -1.75574        1.75651       -0.97653
H         -3.38390        2.01970       -0.33513
H         -3.11955        1.95269       -2.08027
C         -3.05507        0.00670       -1.12260
H         -2.45468       -0.45062       -1.91850
H         -4.10223       -0.19496       -1.38037
C         -2.74679       -0.69180        0.21340
C         -3.76609       -0.32121        1.29080
H         -4.78514       -0.55161        0.96284
H         -3.72364        0.74715        1.53064
H         -3.57572       -0.87476        2.21663
C         -1.33560       -0.38816        0.71748
H         -1.15271       -0.96279        1.63445
H         -1.29185        0.67486        1.00585
N         -0.30853       -0.76574       -0.25375
H         -0.44326       -0.19352       -1.09045
C          1.06223       -0.51367        0.20964
H          1.18493       -1.06243        1.15566
C          2.04846       -1.08795       -0.80832
H          1.83273       -2.15069       -0.96317
H          1.88310       -0.58141       -1.77142
C          3.50291       -0.88947       -0.37745
H          3.68420       -1.45599        0.54647
H          4.17852       -1.29640       -1.13779
C          3.80697        0.58761       -0.12446
H          4.84180        0.71258        0.21324
H          3.70666        1.14266       -1.06756
C          2.83593        1.16751        0.90412
H          3.03597        2.23267        1.06455
H          2.99417        0.66563        1.86892
C          1.38144        0.96531        0.47003
H          1.19560        1.52135       -0.46223
H          0.70774        1.37506        1.23002
H         -2.81216       -1.77394        0.03837
