17
id_1256_cb.log	Energy: -205046.4426979
C          2.29500        0.00008        0.22462
H          3.36015        0.00014        0.43503
C          1.60848        1.20582        0.08665
H          2.13839        2.14823        0.18898
C          0.24237        1.20297       -0.18797
H         -0.29246        2.14391       -0.29819
C         -0.45570       -0.00007       -0.32902
C          0.24248       -1.20304       -0.18788
H         -0.29226       -2.14404       -0.29803
C          1.60860       -1.20574        0.08674
H          2.13859       -2.14809        0.18914
C         -1.94972       -0.00014       -0.55533
H         -2.23283       -0.88148       -1.13797
H         -2.23286        0.88094       -1.13834
N         -2.74734        0.00010        0.68118
H         -2.45223        0.80715        1.23197
H         -2.45221       -0.80671        1.23230
