16
id_123_ca.log	Energy: -321844.3717534
C          1.10705       -1.21322       -0.00000
H          1.64597       -2.15471       -0.00001
C         -0.28221       -1.19013       -0.00001
H         -0.83662       -2.12180       -0.00001
C         -0.95576        0.03498       -0.00000
C         -0.24722        1.23961        0.00000
H         -0.78482        2.18197        0.00001
C          1.14103        1.22707        0.00000
H          1.70574        2.15330        0.00001
C          1.80989       -0.00312       -0.00000
C          3.24863       -0.02498        0.00000
N          4.40816       -0.04305        0.00000
C         -2.44541        0.09736       -0.00000
O         -3.08056        1.13554       -0.00001
O         -3.02541       -1.10678        0.00001
H         -3.99565       -0.99301        0.00001
