17
id_1489_ca.log	Energy: -217675.0400186
C          0.95913       -0.80374       -1.25856
H          2.04836       -0.91441       -1.28318
H          0.64679       -0.27788       -2.16748
H          0.51186       -1.80183       -1.25940
C          0.56890       -0.01279        0.00000
C          1.25750        1.35036        0.00011
H          2.34224        1.20294        0.00010
H          0.98910        1.93139        0.88819
H          0.98909        1.93152       -0.88789
C          0.95917       -0.80396        1.25842
H          2.04840       -0.91461        1.28299
H          0.51191       -1.80205        1.25909
H          0.64684       -0.27826        2.16743
C         -0.93617        0.18257        0.00002
O         -1.51202        1.25626        0.00002
O         -1.61463       -0.97692        0.00001
H         -2.57252       -0.78620       -0.00001
