27
id_1205_ca.log	Energy: -550353.3836836
C         -4.29690       -0.51094       -0.06585
H         -5.37517       -0.39469       -0.11223
C         -3.73319       -1.78744       -0.01278
H         -4.37252       -2.66471       -0.01877
C         -2.35061       -1.93908        0.04870
H         -1.90393       -2.92731        0.09113
C         -1.52632       -0.81299        0.05130
C         -2.09258        0.47119       -0.00333
C         -3.47925        0.61612       -0.05948
H         -3.90971        1.61159       -0.09847
C         -1.23335        1.68506        0.00385
O         -1.72266        2.80664       -0.00578
C          0.24770        1.50168        0.01131
C          1.06835        2.62944       -0.01166
H          0.61659        3.61582       -0.02709
C          2.45134        2.48358       -0.00950
H          3.09157        3.35961       -0.02199
C          3.01941        1.21044        0.00466
H          4.09917        1.09092       -0.00135
C          2.20341        0.08036        0.01789
C          0.81064        0.21624        0.03280
C         -0.05386       -0.99315        0.12306
O          0.44794       -2.10063        0.26530
C          2.89294       -1.25319        0.01721
O          3.45176       -1.71866        0.98948
O          2.92086       -1.81384       -1.19339
H          3.40433       -2.66311       -1.14523
