12
id_1513_cb.log	Energy: -254829.2958010
C         -0.97185       -1.71511        0.00000
H         -1.34384       -2.73693        0.00000
C         -1.87337       -0.64904        0.00000
H         -2.94516       -0.81929        0.00000
C         -1.36592        0.65626        0.00000
H         -2.02120        1.52363        0.00000
C         -0.00000        0.84907        0.00000
C          0.96837       -0.19008        0.00000
C          0.40564       -1.49393        0.00000
H          1.09522       -2.33571        0.00000
O          2.24957        0.05269        0.00000
F          0.47123        2.13375        0.00000
