24
id_1214_cb.log	Energy: -301550.2162587
C         -1.75780        1.82290       -0.54894
H         -1.69332        2.49068        0.31747
H         -2.54750        2.19486       -1.20915
H         -0.80789        1.87205       -1.09207
C         -2.06737        0.39440       -0.12621
C         -1.09039       -0.16604        0.92874
C          0.35714       -0.10996        0.47379
C          0.92323       -1.15807       -0.25684
H          0.33391       -2.04668       -0.46464
C          2.24077       -1.07820       -0.70517
H          2.66828       -1.90104       -1.27039
C          3.00982        0.04968       -0.42486
H          4.03730        0.10964       -0.77039
C          2.45532        1.09681        0.31003
H          3.05059        1.97481        0.54233
C          1.13858        1.01409        0.75677
H          0.70998        1.82813        1.33735
O         -1.49484       -1.49164        1.23641
H         -1.83084       -1.83565        0.38407
N         -2.11097       -0.56773       -1.23622
H         -1.28350       -0.42500       -1.81758
H         -2.90992       -0.34788       -1.82836
H         -3.05448        0.36758        0.34842
H         -1.19288        0.43207        1.84136
