55
id_1435_cb.log	Energy: -689400.8442175
C          2.58444       -1.59402        2.78351
H          3.33556       -1.40143        3.55358
H          3.09070       -2.00963        1.90572
H          1.88421       -2.34203        3.16459
C          1.84459       -0.29980        2.43037
H          2.53608        0.44915        2.03887
H          1.37698        0.11334        3.33129
C          0.72519       -0.58344        1.44449
O         -0.16652       -1.35416        1.75596
C          0.81598        0.00246        0.01339
C          2.03520       -0.78250       -0.52030
C          1.87927       -2.11661       -0.92089
H          0.89287       -2.56915       -0.94339
C          2.97710       -2.89093       -1.28663
H          2.82534       -3.91989       -1.59780
C          4.26149       -2.35302       -1.24508
H          5.11874       -2.95670       -1.52614
C          4.43365       -1.03419       -0.83347
H          5.42845       -0.60174       -0.78768
C          3.33319       -0.25934       -0.47203
H          3.49625        0.76168       -0.14286
C          1.02862        1.51532        0.03955
C          0.59081        2.28733        1.12172
H          0.15182        1.80796        1.99382
C          0.69799        3.67699        1.10468
H          0.35364        4.25078        1.95950
C          1.24121        4.32373       -0.00173
H          1.32635        5.40580       -0.01680
C          1.67617        3.56902       -1.08961
H          2.10190        4.05983       -1.95942
C          1.57083        2.18088       -1.06772
H          1.92496        1.60679       -1.91908
C         -0.49377       -0.32769       -0.76889
C         -0.37630       -0.09903       -2.27547
H          0.46836       -0.64113       -2.71054
H         -0.25853        0.96421       -2.50771
H         -1.28659       -0.44577       -2.77120
C         -1.69008        0.45879       -0.20762
H         -1.68951        1.46191       -0.65090
H         -1.59731        0.59711        0.88343
N         -2.98052       -0.16326       -0.51712
C         -3.22690       -1.30672        0.36728
H         -2.46801       -2.07784        0.20949
H         -3.17460       -0.99468        1.42706
C         -4.59736       -1.90168        0.09719
H         -4.79731       -2.72471        0.78729
H         -4.64461       -2.28285       -0.93356
O         -5.62245       -0.93802        0.29639
C         -5.40892        0.18087       -0.55333
H         -5.48010       -0.13561       -1.60446
H         -6.20843        0.89569       -0.34491
C         -4.05225        0.81093       -0.29461
H         -4.02759        1.19258        0.74298
H         -3.91281        1.66140       -0.96942
H         -0.69233       -1.38887       -0.59950
