25
id_1684_ca.log	Energy: -231489.7531284
C         -1.74859        1.81224        0.08134
H         -1.98840        1.76243        1.14917
H         -2.66013        1.66309       -0.49998
H         -1.37123        2.81478       -0.13573
C         -0.66301        0.80929       -0.26941
C          0.68144        1.19705        0.35302
H          0.96266        2.17696       -0.04191
H          0.53246        1.30304        1.43791
C          1.75088        0.17470        0.07814
C          2.91696        0.47097       -0.49103
H          3.16430        1.49033       -0.77596
H          3.66344       -0.29584       -0.68143
C          1.35373       -1.21996        0.47929
H          1.26153       -1.28265        1.57196
H          2.09703       -1.95558        0.16135
C          0.01368       -1.59269       -0.13989
H         -0.34081       -2.55835        0.22220
H          0.06107       -1.61032       -1.23201
N         -1.04208       -0.58071        0.21138
C         -2.37025       -1.02173       -0.30311
H         -2.36085       -0.93018       -1.39017
H         -3.14942       -0.39861        0.13044
H         -2.52196       -2.06000       -0.00962
H         -0.55982        0.70345       -1.35448
H         -1.10443       -0.53669        1.23852
