17
id_1471_ca.log	Energy: -441347.9901088
C          0.71699       -0.82330        0.67126
H          0.46025       -1.72890        1.20475
C         -0.04312        0.29422        0.49733
N          0.55920        1.30446       -0.23255
C          1.75593        0.95386       -0.59307
H          2.42496        1.58249       -1.16872
S          2.25034       -0.62277       -0.08612
C         -1.44702        0.47964        0.99328
H         -1.68860       -0.29448        1.72818
H         -1.53898        1.45057        1.48893
C         -2.46724        0.44827       -0.13637
H         -2.22164        1.15901       -0.92538
H         -3.47404        0.64482        0.22994
N         -2.49574       -0.90858       -0.76838
H         -1.56731       -1.17553       -1.12029
H         -3.15073       -0.93836       -1.55753
H         -2.78678       -1.62263       -0.08998
