16
id_1424_ca.log	Energy: -180809.3624889
C          0.66230        1.23826       -0.23681
H          1.17427        2.10031        0.19028
H          0.74341        1.25278       -1.32466
C         -0.78650        1.16761        0.20739
H         -1.32683        2.02808       -0.18986
H         -0.84623        1.18437        1.30518
O         -1.41542       -0.00005       -0.29571
C         -0.78641       -1.16767        0.20739
H         -0.84614       -1.18443        1.30518
H         -1.32668       -2.02818       -0.18986
C          0.66239       -1.23821       -0.23681
H          0.74350       -1.25273       -1.32466
H          1.17443       -2.10022        0.19028
N          1.36798        0.00005        0.22996
H          1.41110        0.00005        1.25746
H          2.33605        0.00009       -0.11031
