28
id_1239_cb.log	Energy: -373385.1789661
C          3.81519       -0.54768       -1.46097
H          3.74821        0.25872       -2.21054
H          3.39119       -1.45720       -1.89492
H          4.87167       -0.72603       -1.24289
N          3.10736       -0.20722       -0.23000
C          3.68992        1.00563        0.34088
H          3.54399        1.88139       -0.31416
H          4.76345        0.85747        0.48399
H          3.24973        1.22303        1.31736
C          1.68963       -0.00939       -0.53233
H          1.52601        0.86076       -1.19287
H          1.33041       -0.90248       -1.05712
C          0.85906        0.16412        0.74243
C         -0.61620        0.11565        0.42343
C         -1.27815       -1.10487        0.27555
H         -0.73519       -2.03110        0.43943
C         -2.62550       -1.15059       -0.06762
H         -3.14111       -2.10141       -0.17542
C         -3.32477        0.03883       -0.27722
C         -2.67776        1.26676       -0.13920
H         -3.23742        2.18260       -0.30067
C         -1.33252        1.29539        0.21263
H         -0.83088        2.25314        0.32921
O         -4.65267        0.05541       -0.61584
H         -4.97411       -0.85882       -0.68452
O          1.19507       -0.86817        1.65942
H          2.12941       -1.07524        1.47095
H          1.08055        1.14471        1.18801
