14
id_198_cb.log	Energy: -133319.4293225
C          2.05163        0.33186        0.01501
H          2.27858        0.42938        1.08184
H          1.83037        1.33130       -0.37411
H          2.94989       -0.03813       -0.48735
C          0.86729       -0.60587       -0.20569
H          1.11391       -1.61224        0.15330
H          0.65042       -0.69160       -1.27845
C         -0.37060       -0.10768        0.49425
C         -1.26178        0.84121       -0.19239
H         -1.00552        1.12147       -1.20993
H         -1.79767        1.59832        0.36984
N         -1.69775       -0.54400        0.04662
H         -1.57150       -1.06159       -0.82415
H         -0.28351       -0.02598        1.57553
