18
id_1915_ca.log	Energy: -439447.5164715
C         -0.99607       -2.51877       -0.07337
H         -1.21542       -3.58066       -0.11028
C          0.33952       -2.09199       -0.05271
H          1.16328       -2.79725       -0.04244
C          0.57853       -0.73770        0.00397
C         -0.43419        0.23727        0.01913
C         -1.76183       -0.22673        0.02971
C         -2.02972       -1.60476       -0.02339
H         -3.06658       -1.92473       -0.02738
O         -2.82980        0.59698        0.05660
H         -2.53083        1.52382        0.17409
C         -0.18399        1.69085       -0.11349
O         -0.99960        2.53946        0.21857
O          0.97323        1.98887       -0.69287
H          1.07165        2.96039       -0.74914
N          1.98422       -0.33982        0.17627
O          2.25420        0.38851        1.11514
O          2.80382       -0.80032       -0.59967
