26
id_1205_cb.log	Energy: -550073.3457219
C          4.29061       -0.45421        0.04894
H          5.36722       -0.31840        0.07878
C          3.74819       -1.74116        0.02874
H          4.40267       -2.60720        0.04320
C          2.36788       -1.91765       -0.01058
H          1.93868       -2.91426       -0.02759
C          1.52224       -0.80726       -0.02535
C          2.06746        0.48570       -0.00414
C          3.45250        0.65702        0.03119
H          3.86472        1.66089        0.04568
C          1.18406        1.68088       -0.02148
O          1.65602        2.81157       -0.03499
C         -0.29174        1.46895       -0.01222
C         -1.12143        2.58778        0.00838
H         -0.68049        3.57908        0.01114
C         -2.50405        2.42406        0.02463
H         -3.15417        3.29339        0.03861
C         -3.05298        1.14484        0.02562
H         -4.13248        1.01749        0.04252
C         -2.23459        0.01107        0.00904
C         -0.84212        0.17164       -0.01718
C          0.04833       -1.01950       -0.07202
O         -0.41411       -2.15001       -0.16015
C         -2.93745       -1.33932        0.04349
O         -3.36830       -1.77874       -1.05373
O         -3.09705       -1.86132        1.17702
