21
id_1927_ca.log	Energy: -276586.4336193
C         -1.10097        1.27389       -0.70787
H         -0.48369        1.03724       -1.58337
H         -1.63895        2.19839       -0.93217
C         -0.22892        1.45461        0.53462
H         -0.84939        1.77754        1.37738
H          0.53275        2.22000        0.36701
C          0.44508        0.12444        0.93002
C         -0.58926       -0.98023        1.10090
H         -1.26775       -0.74245        1.92179
H         -0.12755       -1.95192        1.27790
N         -1.42853       -1.10609       -0.13396
H         -0.81010       -1.39732       -0.90433
C         -2.12579        0.17121       -0.50021
H         -2.70959       -0.03008       -1.39824
H         -2.79985        0.39999        0.32849
C          1.46526       -0.25824       -0.11700
O          1.29446       -1.11713       -0.96347
O          2.57329        0.47917       -0.04525
H          3.17046        0.21869       -0.77399
H          0.97098        0.25114        1.88027
H         -2.12209       -1.84904        0.00392
