27
id_1404_cb.log	Energy: -302921.4199485
C          3.59651        0.36117       -0.53734
H          4.56144        0.64816       -0.94388
C          2.95955        1.17439        0.39760
H          3.42693        2.09903        0.72321
C          1.72155        0.80251        0.92042
H          1.22884        1.43795        1.65257
C          1.10275       -0.38499        0.51992
C          1.75209       -1.19338       -0.41985
H          1.28227       -2.12203       -0.73660
C          2.98834       -0.82606       -0.94502
H          3.47947       -1.46774       -1.67060
C         -0.25784       -0.77400        1.04430
H         -0.47381       -0.21840        1.96603
H         -0.27305       -1.84231        1.28764
C         -1.36137       -0.48069        0.03194
C         -1.49747        1.00657       -0.34515
H         -1.25879        1.62078        0.53194
H         -0.81116        1.29650       -1.14546
C         -2.98463        1.16481       -0.73329
H         -3.11395        1.40729       -1.79135
H         -3.45581        1.96347       -0.15407
C         -3.60897       -0.20715       -0.39038
H         -3.69694       -0.81474       -1.29706
H         -4.60257       -0.13128        0.05553
N         -2.68556       -0.89192        0.52942
H         -2.79027       -0.43138        1.43793
H         -1.16682       -1.06090       -0.88067
