22
id_1479_ca.log	Energy: -266843.7479823
C          3.23120       -0.05790        0.00500
H          3.62716        0.33003        0.95044
H          3.64286        0.56234       -0.79828
H          3.60796       -1.07662       -0.12387
C          1.72309       -0.03390       -0.00437
C          1.02821        1.18139       -0.00378
H          1.58624        2.11683       -0.00683
C         -0.36531        1.23622       -0.00025
C         -1.07267        0.02671        0.00192
C         -0.42105       -1.21002       -0.00020
C          0.97869       -1.21398       -0.00372
H          1.49426       -2.17286       -0.00668
C         -1.21213       -2.49178       -0.00096
H         -0.54097       -3.35398       -0.00277
H         -1.85783       -2.56803       -0.88489
H         -1.85583       -2.57030        0.88421
O         -2.44977        0.12174        0.00385
H         -2.84963       -0.76345        0.00435
C         -1.11156        2.54262       -0.00087
H         -1.75841        2.63047       -0.88105
H         -0.41254        3.38291       -0.00282
H         -1.75598        2.63260        0.88086
