25
id_1097_cb.log	Energy: -455809.4254851
C          4.57159       -1.02836        0.02601
H          5.45566       -1.65876        0.03508
C          3.93458       -0.70214        1.22497
H          4.32139       -1.07678        2.16802
C          2.80029        0.10915        1.21978
H          2.28745        0.37492        2.13988
C          2.31911        0.58227        0.00343
C          2.93828        0.26899       -1.20104
H          2.53088        0.65665       -2.13024
C          4.07373       -0.54188       -1.18365
H          4.56839       -0.79199       -2.11754
O          1.21601        1.43422       -0.00785
C         -0.04205        0.86870       -0.00325
C         -1.11081        1.76594        0.06090
H         -0.90581        2.83122        0.11079
C         -2.41156        1.28039        0.05862
H         -3.24194        1.97757        0.10812
C         -2.66835       -0.09523       -0.00662
C         -1.58381       -0.97245       -0.06939
H         -1.76242       -2.04191       -0.12175
C         -0.26959       -0.50571       -0.06878
H          0.55767       -1.20580       -0.12069
C         -4.09319       -0.61513       -0.01367
O         -4.26212       -1.86541       -0.08346
O         -5.02395        0.23716        0.04687
