31
id_1319_ca.log	Energy: -327871.8090257
C          3.68349        0.24524       -1.03141
H          3.36941        0.20005       -2.07340
H          4.66902       -0.20438       -0.91241
H          3.69592        1.27546       -0.67695
N          2.71318       -0.53214       -0.20733
C          3.18652       -0.61769        1.20530
H          4.12313       -1.17398        1.20802
H          2.44318       -1.13393        1.81092
H          3.34991        0.39339        1.57660
C          1.29564       -0.01393       -0.35900
C          1.03263        1.22999        0.47718
H          1.00217        0.95884        1.53866
H          1.81596        1.98115        0.33921
C         -0.31735        1.80692        0.05099
H         -0.21769        2.24983       -0.94840
H         -0.60117        2.62097        0.72470
C         -1.41616        0.76557        0.02174
C         -2.75486        1.17455        0.02805
H         -2.97711        2.23802        0.07690
C         -3.79172        0.25105       -0.02495
H         -4.82308        0.59001       -0.01701
C         -3.49836       -1.11204       -0.08581
H         -4.29882       -1.84420       -0.12859
C         -2.17297       -1.52869       -0.09256
H         -1.93654       -2.58902       -0.14093
C         -1.12414       -0.60389       -0.03726
C          0.30240       -1.11701       -0.01595
H          0.40737       -1.94729       -0.72313
H          0.52000       -1.51641        0.98274
H          1.20705        0.23491       -1.42151
H          2.70827       -1.48893       -0.58206
