21
id_1977_ca.log	Energy: -360320.1934739
C         -3.07511       -1.09955       -0.00000
H         -3.99241       -1.68386        0.00000
C         -3.24910        0.28542        0.00002
H         -4.27830        0.63380        0.00003
C         -2.27323        1.27893        0.00001
H         -2.63832        2.30491        0.00002
C         -0.88453        1.14526        0.00000
C          0.02101        2.23301       -0.00000
H         -0.26795        3.27713       -0.00000
C          1.31270        1.72793       -0.00001
H          2.22190        2.31828       -0.00001
C          1.27404        0.31109       -0.00000
C         -0.08641       -0.09668       -0.00001
C         -0.57101       -1.40572       -0.00002
H          0.18260       -2.18751       -0.00003
C         -1.89463       -1.84518       -0.00002
H         -2.02437       -2.92417       -0.00003
C          2.44100       -0.55194        0.00001
O          2.44091       -1.77924        0.00004
O          3.60521        0.13806       -0.00002
H          4.33959       -0.50452       -0.00000
