43
id_1565_ca.log	Energy: -426000.3023834
C         -5.70210       -0.85253       -0.92263
H         -6.14034       -0.89965       -1.92415
H         -6.16846       -0.01601       -0.39080
H         -5.97115       -1.77380       -0.39445
C         -4.18743       -0.68215       -0.98107
H         -3.93854        0.23170       -1.53549
H         -3.74198       -1.51564       -1.53916
C         -3.55508       -0.61411        0.40664
H         -3.80406       -1.52566        0.96669
H         -3.99290        0.22456        0.96539
C         -2.03792       -0.45055        0.36147
H         -1.80119        0.44746       -0.22772
H         -1.59064       -1.30429       -0.16819
C         -1.42562       -0.33940        1.75782
H         -1.79053       -1.16197        2.38371
H         -1.75446        0.58581        2.24255
C          0.09162       -0.45252        1.77149
H          0.39883       -1.46207        1.48548
H          0.51848       -0.21536        2.74880
N          0.76298        0.46358        0.78398
C          0.56731        1.91488        1.09460
H         -0.47824        2.04327        1.37861
H          1.21046        2.16582        1.94091
C          0.86752        2.76146       -0.13627
H          1.93786        2.77942       -0.36590
H          0.55720        3.78572        0.08434
O          0.12422        2.29932       -1.25347
H          0.67544        1.63551       -1.70941
C          2.20924        0.08660        0.59727
H          2.79940        1.00006        0.50103
H          2.52888       -0.44833        1.49212
C          2.35109       -0.75199       -0.65946
C          3.79348       -1.17032       -0.91225
H          3.81889       -1.65741       -1.89360
H          4.40906       -0.26599       -0.98451
C          4.34332       -2.11738        0.15075
H          4.45834       -1.62050        1.11863
H          5.32576       -2.49417       -0.14552
H          3.68046       -2.97845        0.28804
O          1.86326        0.07744       -1.71893
H          1.70355       -0.48318       -2.49546
H          1.71367       -1.64403       -0.57322
H          0.30299        0.31615       -0.12745
