36
id_107_cb.log	Energy: -389827.8594799
C         -2.86902       -1.24613        1.25034
H         -2.79680       -0.64369        2.16366
H         -2.08484       -2.01041        1.28514
H         -3.83897       -1.75894        1.25492
C         -2.73782       -0.35986        0.00000
C         -3.90023        0.63788        0.00001
H         -4.85065        0.09197        0.00001
H         -3.88269        1.28060       -0.88785
H         -3.88268        1.28059        0.88787
C         -2.86904       -1.24613       -1.25034
H         -2.08486       -2.01040       -1.28516
H         -2.79682       -0.64368       -2.16366
H         -3.83898       -1.75893       -1.25492
C         -1.37808        0.34555       -0.00000
C         -1.22300        1.73338       -0.00001
H         -2.09077        2.38837       -0.00001
C          0.04498        2.31219       -0.00001
H          0.14187        3.39697       -0.00001
C          1.24610        1.55620       -0.00001
C          1.09651        0.12148       -0.00000
C         -0.19428       -0.41412       -0.00000
H         -0.29961       -1.49536        0.00000
C          2.32793       -0.79653        0.00000
C          3.17606       -0.55011        1.26078
H          3.50817        0.48785        1.32887
H          4.06217       -1.19752        1.25072
H          2.59709       -0.78648        2.16203
C          3.17607       -0.55011       -1.26078
H          2.59710       -0.78649       -2.16203
H          4.06218       -1.19752       -1.25071
H          3.50817        0.48784       -1.32887
C          1.95348       -2.28513        0.00001
H          1.37510       -2.56438        0.88843
H          2.87225       -2.88295        0.00001
H          1.37511       -2.56439       -0.88842
O          2.40632        2.16694       -0.00000
