29
id_1010_ca.log	Energy: -233006.3881034
C         -0.42434       -0.00001        5.00611
H         -1.06925        0.88491        5.02473
H          0.17465       -0.00002        5.92131
H         -1.06925       -0.88494        5.02473
C          0.46178       -0.00001        3.76520
H          1.11604       -0.88004        3.77423
H          1.11605        0.88002        3.77425
C         -0.36171        0.00001        2.47877
H         -1.01094        0.88433        2.45427
H         -1.01095       -0.88430        2.45426
C          0.53651        0.00001        1.25558
H          1.16950       -0.88929        1.21640
H          1.16951        0.88930        1.21641
N         -0.27582        0.00002        0.00000
H         -0.89342       -0.82186        0.00000
C          0.53651        0.00001       -1.25558
H          1.16951        0.88930       -1.21641
H          1.16950       -0.88929       -1.21640
C         -0.36171        0.00001       -2.47877
H         -1.01095       -0.88430       -2.45426
H         -1.01094        0.88433       -2.45427
C          0.46178       -0.00001       -3.76520
H          1.11605        0.88002       -3.77425
H          1.11604       -0.88004       -3.77423
C         -0.42434       -0.00001       -5.00611
H         -1.06925        0.88491       -5.02473
H         -1.06925       -0.88494       -5.02473
H          0.17465       -0.00002       -5.92131
H         -0.89341        0.82190        0.00000
