30
id_1252_ca.log	Energy: -421344.2722651
N          1.22488        2.51603       -0.49458
H          0.52751        3.23316       -0.68596
C          0.88142        1.30562       -0.17345
C          1.92208        0.28375       -0.02642
C          3.07320        0.32922       -0.82787
H          3.17488        1.08422       -1.60243
C          4.06557       -0.62702       -0.66145
H          4.94699       -0.60350       -1.29309
C          3.92334       -1.61900        0.30940
H          4.70335       -2.36262        0.43831
C          2.78339       -1.66378        1.11054
H          2.67781       -2.43263        1.86828
C          1.77587       -0.72252        0.93966
H          0.89213       -0.74706        1.56868
C         -0.54181        1.00701        0.03103
C         -1.39796        1.98884        0.55492
H         -1.00904        2.95079        0.87295
C         -2.74300        1.69189        0.70886
H         -3.41371        2.43372        1.12893
C         -3.25342        0.44684        0.33840
H         -4.31039        0.24465        0.46570
C         -2.39633       -0.52354       -0.18642
C         -1.03470       -0.24735       -0.33078
H         -0.38814       -1.00986       -0.75237
O         -2.79134       -1.76119       -0.58357
C         -4.17297       -2.07860       -0.45593
H         -4.27908       -3.09779       -0.82571
H         -4.48998       -2.03200        0.59071
H         -4.78692       -1.40193       -1.05890
H          2.20292        2.78996       -0.56737
