25
id_1298_ca.log	Energy: -348889.1477753
C          4.07787        0.67944       -0.01996
H          3.85334        1.26407       -0.91801
H          5.12488        0.37854       -0.02933
H          3.87437        1.28134        0.87157
O          3.32355       -0.52594       -0.00002
C          1.97023       -0.40551        0.00584
C          1.26375       -1.63908        0.01441
H          1.83855       -2.55938        0.01999
C         -0.10251       -1.65942        0.01465
H         -0.61583       -2.61603        0.02260
C         -0.84081       -0.44329        0.00616
C         -0.13269        0.79076        0.00608
C          1.28737        0.78820        0.00469
H          1.80343        1.74162        0.00175
C         -0.86042        2.01193        0.00626
H         -0.30428        2.94481        0.00767
C         -2.23108        2.01750        0.00487
H         -2.77872        2.95341        0.00624
C         -2.94971        0.79911       -0.00186
H         -4.03544        0.79720       -0.00660
C         -2.25622       -0.37773       -0.00310
N         -3.01103       -1.63834       -0.01894
H         -2.77549       -2.21651       -0.83784
H         -4.02241       -1.45672       -0.05304
H         -2.82837       -2.20790        0.81952
