30
id_1211_ca.log	Energy: -420875.5727997
C          3.21032        2.07171        1.08766
H          4.25415        1.81268        0.88158
H          2.98314        1.78278        2.11907
H          3.12569        3.15867        1.01408
C          2.24730        1.40273        0.11028
H          2.51958        1.64289       -0.92548
H          1.23429        1.78203        0.27219
C          2.18722       -0.10939        0.26213
C          1.27741       -0.80223       -0.75504
C         -0.15931       -0.36077       -0.59696
C         -0.73381        0.53476       -1.49406
H         -0.15419        0.90184       -2.33643
C         -2.05001        0.96450       -1.31753
H         -2.51305        1.66136       -2.00881
C         -2.79429        0.49399       -0.24576
C         -2.21949       -0.41459        0.65750
C         -0.91143       -0.83621        0.48357
H         -0.48264       -1.54555        1.18760
O         -3.03437       -0.82691        1.67859
H         -2.54518       -1.42762        2.26541
O         -4.08544        0.91299       -0.07597
H         -4.44230        0.48752        0.72310
O          1.44763       -2.19408       -0.51842
H          1.00843       -2.67590       -1.23770
N          3.55853       -0.70059        0.08617
H          4.17537       -0.47924        0.87525
H          4.00152       -0.34563       -0.77155
H          1.87413       -0.39086        1.27241
H          1.62677       -0.54117       -1.76431
H          3.47848       -1.72270        0.00601
