9
id_1001_cb.log	Energy: -107878.8911049
C         -1.95191       -0.23029       -0.01712
H         -2.96889       -0.56378       -0.03674
C         -0.80651        0.14831       -0.00044
C          0.59030        0.59843        0.04016
H          0.74407        1.16097        0.97070
H          0.75476        1.30140       -0.78163
N          1.51155       -0.53350       -0.12712
H          2.45613       -0.15093       -0.10754
H          1.44175       -1.11193        0.70945
