19
id_1848_ca.log	Energy: -641943.2598345
C         -2.17886        1.21181        0.12053
H         -2.70430        2.15374       -0.00160
C         -0.85426        1.18114        0.54112
H         -0.33072        2.10724        0.75279
C         -0.20525       -0.04594        0.69145
C         -0.86732       -1.24449        0.42636
H         -0.35503       -2.19272        0.54790
C         -2.19380       -1.21992        0.00633
H         -2.72941       -2.14046       -0.20303
C         -2.81904        0.00829       -0.13612
N         -4.21404        0.04316       -0.59363
H         -4.27459        0.31223       -1.58607
H         -4.76892        0.72537       -0.05894
S          1.49452       -0.08195        1.24432
C          2.25176        0.02475       -0.39502
F          1.90808       -0.99616       -1.18349
F          1.91704        1.14482       -1.04006
F          3.57672        0.00965       -0.24711
H         -4.66703       -0.87494       -0.49680
