45
id_1353_ca.log	Energy: -973224.0380208
C         -5.27747       -0.65163       -1.92557
H         -5.18357       -0.32742       -2.96696
H         -5.98024        0.02285       -1.42276
H         -5.70937       -1.65750       -1.91830
C         -3.92576       -0.63210       -1.22310
H         -3.23886       -1.31517       -1.74240
C         -4.04685       -1.09867        0.22893
H         -4.41199       -2.12947        0.27632
H         -4.77521       -0.46879        0.75809
C         -2.71217       -1.04281        0.95573
H         -2.80838       -1.33407        2.00210
H         -1.96969       -1.67966        0.46781
N         -2.16600        0.35681        0.91997
C         -1.98426        0.81615       -0.50053
H         -1.24559        0.14475       -0.94780
H         -1.57362        1.82725       -0.45746
C         -3.30841        0.76755       -1.24596
H         -4.00675        1.48376       -0.79168
H         -3.12766        1.09592       -2.27443
C         -0.90065        0.56933        1.74657
C         -1.21181        0.43017        3.22996
H         -2.07922        1.03767        3.50611
H         -1.39228       -0.60892        3.51653
H         -0.34665        0.79023        3.79264
C          0.17003       -0.38123        1.30099
H          0.03616       -1.41142        1.62856
C          1.25626       -0.07416        0.56517
C          2.19018       -1.11646        0.11014
C          3.51343       -0.97037       -0.22032
H          4.02922       -0.01780       -0.17217
C          4.13472       -2.19441       -0.60346
H          5.17578       -2.28176       -0.89070
C          3.27262       -3.25066       -0.57015
H          3.46954       -4.28588       -0.81678
S          1.69299       -2.77399       -0.07379
C          1.58238        1.31384        0.17492
C          1.70951        2.40890        0.98659
H          1.60735        2.35061        2.06536
C          2.00030        3.60765        0.26899
H          2.14214        4.57470        0.73666
C          2.08956        3.40148       -1.07575
H          2.29906        4.12518       -1.85256
S          1.83506        1.74801       -1.49035
H         -0.62616        1.60147        1.52797
H         -2.88047        0.96598        1.34321
