20
id_1296_cb.log	Energy: -283504.8882866
C         -3.85704       -1.77715        0.01005
H         -4.52202       -2.63501        0.01952
C         -4.39802       -0.47077       -0.03508
H         -5.47403       -0.33411       -0.06864
C         -3.56707        0.62351       -0.04389
H         -3.99885        1.61750       -0.10003
C         -2.15703        0.46622       -0.00414
C         -1.61180       -0.84794        0.01917
C         -2.49704       -1.95928        0.03202
H         -2.07120       -2.95857        0.05602
C         -0.20292       -1.04336        0.01923
H          0.19388       -2.05266        0.02870
C          0.60937        0.05689        0.00109
C          0.10275        1.37231        0.00238
H          0.77690        2.22256        0.01091
C         -1.26258        1.58984        0.00314
N         -1.77367        2.88208       -0.05251
H         -2.61920        3.02319        0.49012
H         -1.08372        3.58958        0.17878
I          2.72193       -0.20205       -0.00512
