29
id_1438_ca.log	Energy: -384381.4215200
C         -3.90526       -0.51706        0.27825
H         -4.92103       -0.86177        0.44489
C         -3.32369        0.39051        1.16247
H         -3.88321        0.75250        2.01904
C         -2.02521        0.83965        0.94301
H         -1.56737        1.55800        1.61619
C         -1.29482        0.36151       -0.14757
C         -1.88083       -0.54452       -1.03664
H         -1.32501       -0.89765       -1.90062
C         -3.18657       -0.97721       -0.82434
H         -3.64347       -1.67189       -1.52176
C          0.07348        0.92850       -0.36871
O          0.27260        2.13274       -0.20128
N          1.06489        0.09036       -0.81107
C          1.13716       -1.31244       -0.39168
H          0.14356       -1.73586       -0.26309
H          1.65317       -1.87933       -1.17254
C          1.88321       -1.42871        0.92897
H          2.02745       -2.47022        1.21595
H          1.36033       -0.89079        1.72296
N          3.23815       -0.80002        0.80152
H          3.80122       -1.34518        0.13489
C          3.16725        0.62394        0.33226
H          2.65807        1.19032        1.11431
H          4.18925        0.98344        0.21522
C          2.39713        0.67142       -0.97615
H          2.92449        0.09839       -1.74526
H          2.30749        1.70386       -1.30816
H          3.72187       -0.84166        1.70589
