23
id_1949_cb.log	Energy: -337663.8784294
C          2.58843        0.19690        1.26995
H          3.45826       -0.45623        1.40000
H          2.05866        0.25435        2.22694
H          2.96045        1.19761        1.02462
C          1.68418       -0.35726        0.16375
H          1.43259       -1.38841        0.42902
C          2.43078       -0.38099       -1.17502
H          2.71397        0.63601       -1.47288
H          1.81074       -0.80913       -1.96956
H          3.34658       -0.97730       -1.09320
C          0.38694        0.42592        0.03762
C          0.42840        1.82567       -0.03898
H          1.39069        2.33161       -0.01426
C         -0.73296        2.58763       -0.14478
H         -0.66570        3.67010       -0.20957
C         -1.97812        1.95786       -0.15732
H         -2.89093        2.54184       -0.23209
C         -2.03960        0.57027       -0.06964
H         -3.00336        0.06700       -0.07247
C         -0.87186       -0.19962        0.00719
C         -1.03383       -1.70950        0.02889
O         -0.41736       -2.37723       -0.84692
O         -1.80591       -2.19386        0.90361
