13
id_1940_ca.log	Energy: -1058013.3909909
C          0.01319        1.55542        0.00000
H          0.17852        2.62810        0.00001
C         -1.29440        1.07407       -0.00000
C         -1.50528       -0.30849        0.00000
C         -0.43750       -1.19549        0.00000
H         -0.61888       -2.26558        0.00000
C          0.86435       -0.70771        0.00000
C          1.08407        0.67232        0.00001
Cl         2.69470        1.31900        0.00001
Cl         2.18482       -1.83508       -0.00001
Cl        -3.13646       -0.91758        0.00001
O         -2.29622        1.98909       -0.00002
H         -3.16850        1.55621        0.00002
