33
id_104_ca.log	Energy: -422255.6676354
C         -3.39463       -1.40010       -0.76780
H         -3.31243       -1.11593       -1.81646
H         -4.43400       -1.61486       -0.52038
H         -2.77210       -2.26554       -0.54213
N         -2.96469       -0.24841        0.08842
C         -3.14150       -0.65783        1.52525
H         -2.91117        0.18754        2.17130
H         -2.46745       -1.49089        1.72555
H         -4.18104       -0.95963        1.65835
C         -3.87448        0.90977       -0.21616
H         -3.71879        1.19803       -1.25610
H         -3.64150        1.73720        0.45177
H         -4.90081        0.57805       -0.05576
C         -1.54533        0.14809       -0.15041
C         -1.02421        1.20928        0.59245
H         -1.62750        1.73928        1.32267
C          0.29482        1.59848        0.39655
H          0.69565        2.42437        0.97913
C          1.11055        0.94673       -0.53582
C          0.56647       -0.10801       -1.26704
H          1.17886       -0.62970       -1.99847
C         -0.75761       -0.51341       -1.08370
H         -1.13613       -1.33641       -1.67648
C          2.55954        1.33369       -0.69264
H          2.93662        0.98077       -1.65792
H          2.66722        2.42206       -0.67106
C          3.42504        0.75808        0.44922
H          3.12123        1.18381        1.40771
H          4.47806        0.99795        0.26816
C          3.26491       -0.73684        0.54538
O          3.77816       -1.47893       -0.45250
O          2.67561       -1.30753        1.44375
H          4.24650       -0.93304       -1.11049
