17
id_1483_cb.log	Energy: -299019.1022642
C         -1.93434       -1.55842        0.00000
H         -2.70310       -2.32885        0.00000
C         -0.60138       -1.93495        0.00000
H         -0.30486       -2.97981        0.00000
C          0.38423       -0.92145       -0.00000
C          1.78193       -1.19042       -0.00000
H          2.13453       -2.21858       -0.00000
C          2.67760       -0.15381       -0.00000
H          3.74607       -0.35072       -0.00000
N          2.32007        1.16389       -0.00000
C          1.02352        1.42457       -0.00000
H          0.74233        2.47491       -0.00000
C         -0.00000        0.45137        0.00000
C         -1.40427        0.84574        0.00000
C         -2.33680       -0.21381        0.00000
H         -3.39506        0.03627        0.00000
O         -1.75042        2.09083        0.00000
