32
id_1698_cb.log	Energy: -281278.2186448
C         -1.65050       -0.84163        1.41500
H         -0.99470       -0.30613        2.10256
H         -1.58326       -1.91223        1.64100
H         -2.67783       -0.51926        1.62261
C         -1.30921       -0.57548       -0.05609
C          0.00000       -1.25122       -0.50591
H          0.00000       -2.30613       -0.19735
H          0.00000       -1.24576       -1.60606
C          1.30921       -0.57547       -0.05609
C          1.19317        0.93007       -0.31824
H          1.18643        1.10236       -1.41453
H          2.07775        1.44130        0.08241
N         -0.00000        1.52678        0.28334
C         -1.19317        0.93007       -0.31824
H         -2.07775        1.44130        0.08241
H         -1.18643        1.10236       -1.41453
C         -0.00000        2.95884        0.01693
H         -0.00000        3.18036       -1.06568
H         -0.88747        3.42195        0.45832
H          0.88747        3.42196        0.45832
C          2.45539       -1.12836       -0.90930
H          2.57450       -2.20515       -0.74113
H          3.40314       -0.64079       -0.65240
H          2.26837       -0.97048       -1.97731
C          1.65050       -0.84163        1.41500
H          0.99470       -0.30614        2.10256
H          2.67783       -0.51926        1.62262
H          1.58327       -1.91224        1.64100
C         -2.45539       -1.12837       -0.90930
H         -3.40314       -0.64080       -0.65240
H         -2.57449       -2.20515       -0.74113
H         -2.26837       -0.97048       -1.97731
