26
id_1206_cb.log	Energy: -550077.4543928
C         -4.67509        0.16129       -0.00003
H         -5.69529        0.53219       -0.00004
C         -4.43077       -1.21357       -0.00000
H         -5.26099       -1.91309        0.00001
C         -3.12294       -1.69097        0.00001
H         -2.92492       -2.75801        0.00003
C         -2.05206       -0.79576       -0.00001
C         -2.29803        0.58752       -0.00004
C         -3.61162        1.05966       -0.00005
H         -3.79320        2.12966       -0.00007
C         -1.17451        1.56402       -0.00004
O         -1.38689        2.77038       -0.00012
C          0.21701        1.03288       -0.00003
C          1.28987        1.92466       -0.00005
H          1.09662        2.99254       -0.00007
C          2.59530        1.44425       -0.00002
H          3.42907        2.13861       -0.00003
C          2.84864        0.06869        0.00003
C          1.77559       -0.82196        0.00003
H          1.95817       -1.89133        0.00006
C          0.46338       -0.34985       -0.00000
C         -0.66055       -1.32671       -0.00001
O         -0.44738       -2.53294        0.00006
C          4.28389       -0.44998        0.00007
O          5.20202        0.41241       -0.00004
O          4.44499       -1.69928        0.00022
