14
id_1361_ca.log	Energy: -190752.5985722
C         -1.18252        1.19780       -0.00000
H         -1.75007        2.12236       -0.00000
C         -1.86482       -0.04111        0.00000
H         -2.94521       -0.09467       -0.00000
C         -1.12191       -1.18270       -0.00000
H         -1.53299       -2.18352       -0.00000
N          0.23894       -1.11467       -0.00000
C          0.93011        0.04814        0.00000
C          0.18638        1.25197       -0.00000
H          0.72928        2.18959       -0.00000
N          2.26099        0.01369        0.00001
H          2.77127       -0.86157       -0.00003
H          2.78350        0.88021       -0.00003
H          0.76124       -1.99018       -0.00000
