17
id_1881_cb.log	Energy: -493439.6398234
C          2.67241       -1.10162       -0.01503
H          2.61640       -1.77352       -0.87951
H          2.67858       -1.73236        0.88298
H          3.62405       -0.56751       -0.05681
C          1.52162       -0.13289       -0.00115
C          1.73201        1.24244        0.00484
H          2.75503        1.60884        0.00467
C          0.67095        2.14760        0.01022
H          0.85634        3.21620        0.01456
C         -0.63243        1.66699        0.00669
H         -1.48195        2.34188        0.00923
C         -0.84849        0.29429        0.00057
C          0.20067       -0.63434        0.00037
N         -0.03126       -2.00225       -0.07002
H         -0.93276       -2.29362        0.29185
H          0.71489       -2.56618        0.32205
Cl        -2.50072       -0.30075       -0.00811
