20
id_1164_cb.log	Energy: -323343.2801167
C          3.81516       -0.64763        0.00101
H          4.14534       -0.11039       -0.89030
H          4.20724       -1.66307       -0.00147
H          4.14447       -0.11503        0.89541
O          2.38962       -0.78373       -0.00015
C          1.69672        0.36532        0.00180
O          2.24539        1.45577        0.00474
C          0.23686        0.16309       -0.00078
C         -0.59665        1.28906       -0.00114
H         -0.15040        2.27872        0.00299
C         -1.97224        1.15272       -0.00340
H         -2.61303        2.02980       -0.00249
C         -2.56011       -0.12703       -0.00645
C         -1.72093       -1.25783       -0.00199
H         -2.16787       -2.24789       -0.00005
C         -0.34525       -1.11183       -0.00002
H          0.28521       -1.99467        0.00486
N         -3.92735       -0.26866       -0.06949
H         -4.29413       -1.15549        0.25599
H         -4.46691        0.52707        0.25060
