24
id_1693_cb.log	Energy: -231198.8248723
C          2.45869        1.24592       -0.18295
H          1.97127        2.16966        0.12899
H          2.74755        1.35133       -1.23646
H          3.39243        1.15063        0.38491
C          1.61880        0.00577        0.00847
C          0.31708        0.01958        0.34573
C         -0.52063        1.26819        0.52471
H         -0.86923        1.31325        1.56761
H          0.04029        2.18434        0.33310
C         -1.75482        1.20957       -0.38865
H         -1.43084        1.26041       -1.43662
H         -2.40603        2.07167       -0.20408
C         -2.52698       -0.08844       -0.16935
H         -3.37371       -0.15249       -0.85938
H         -2.93685       -0.09924        0.84887
N         -1.70484       -1.29470       -0.32589
H         -1.34852       -1.28291       -1.28370
C         -0.52415       -1.22213        0.55607
H         -0.90313       -1.21580        1.58758
H          0.04810       -2.14197        0.43732
C          2.43069       -1.24788       -0.21751
H          3.17119       -1.37270        0.58276
H          2.99843       -1.15418       -1.15131
H          1.84088       -2.16262       -0.27745
