20
id_1983_ca.log	Energy: -242330.7065679
C          3.25615       -0.08205        0.32501
H          3.20400        0.41336        1.30208
H          3.48850        0.67977       -0.42590
H          4.09384       -0.78648        0.35084
C          1.94843       -0.80551        0.01225
H          1.83196       -1.65557        0.69678
H          1.99139       -1.22365       -1.00370
C          0.70627        0.08582        0.12738
C          0.78171        1.29404       -0.80758
H          0.95632        0.96322       -1.83972
H          1.59450        1.97047       -0.52654
H         -0.14880        1.87216       -0.79091
C         -0.54042       -0.74608       -0.17313
H         -0.53329       -1.68042        0.40603
H         -0.57537       -1.03442       -1.23028
C         -1.83136       -0.06058        0.17776
O         -1.95783        0.85686        0.96840
O         -2.88766       -0.59757       -0.45782
H         -3.70263       -0.14930       -0.15785
H          0.63875        0.44278        1.16433
