30
id_101_cb.log	Energy: -434170.0730133
C         -4.37695        2.18764       -0.04371
H         -4.20910        2.41637        1.01523
H         -5.43440        1.92536       -0.16468
H         -4.18928        3.10104       -0.61764
C         -3.47542        1.04345       -0.50023
H         -2.42429        1.34445       -0.40382
H         -3.64471        0.83891       -1.56653
C         -3.71763       -0.23514        0.29875
H         -4.78078       -0.50296        0.23703
H         -3.50041       -0.04847        1.35987
C         -2.88293       -1.43018       -0.18674
H         -3.12940       -1.63810       -1.23510
H         -3.16078       -2.31757        0.39442
C         -1.39706       -1.19314       -0.06043
C         -0.60569       -0.91310       -1.18077
H         -1.06680       -0.89273       -2.16622
C          0.75878       -0.65814       -1.05181
H          1.35621       -0.44141       -1.93502
C          1.36748       -0.67864        0.20592
C          0.58550       -0.96014        1.32816
H          1.05026       -0.98817        2.31145
C         -0.77973       -1.21184        1.19554
H         -1.37377       -1.43630        2.07959
C          2.84201       -0.36023        0.34640
C          3.05638        1.16491        0.19825
O          3.71559        1.53788       -0.80974
O          2.54997        1.90239        1.08028
O          3.62162       -1.05221       -0.61555
H          3.98519       -0.35272       -1.19534
H          3.17622       -0.64495        1.35077
