13
id_1375_cb.log	Energy: -273734.2453187
C         -1.36004        0.17127       -0.00000
H         -2.12393        0.94483       -0.00000
C         -1.71727       -1.15673       -0.00000
H         -2.75742       -1.46500       -0.00000
N         -0.79022       -2.15383        0.00000
C          0.48388       -1.82676        0.00000
H          1.21062       -2.63869        0.00000
C          1.00418       -0.47795        0.00000
C         -0.00000        0.53921       -0.00000
C          0.38971        1.93955       -0.00000
H          1.47148        2.14384       -0.00000
O         -0.40161        2.88549       -0.00000
O          2.26762       -0.26544        0.00000
