20
id_152_cb.log	Energy: -229713.4165368
C          2.52009       -0.72375        0.01353
H          2.58592       -1.38750        0.88406
H          3.37082       -0.03888        0.04203
H          2.62789       -1.35566       -0.87742
C          1.22177        0.03793        0.00080
C          1.20055        1.43215       -0.00582
H          2.14749        1.96668       -0.00684
C          0.00000        2.13819       -0.01052
H          0.00000        3.22356       -0.01476
C         -1.20055        1.43215       -0.00582
H         -2.14749        1.96668       -0.00684
C         -1.22177        0.03793        0.00080
C          0.00000       -0.66285        0.00117
N         -0.00000       -2.05995        0.07393
H         -0.83160       -2.49063       -0.31616
H          0.83159       -2.49063       -0.31616
C         -2.52009       -0.72375        0.01353
H         -2.58593       -1.38749        0.88406
H         -2.62788       -1.35566       -0.87742
H         -3.37082       -0.03888        0.04203
