17
id_1767_ca.log	Energy: -1922387.6885350
C          1.90953       -1.65836        0.01838
H          2.51158       -2.56128        0.01671
C          0.52323       -1.74128        0.00406
H          0.04302       -2.71251       -0.02228
C         -0.25672       -0.58701        0.01541
C          0.38400        0.65261        0.02378
C          1.76841        0.75794        0.01442
H          2.24146        1.73445        0.01031
C          2.50897       -0.40770        0.02266
N          3.96962       -0.31062        0.05703
H          4.30582        0.53230       -0.42881
H          4.41159       -1.12546       -0.39117
N         -0.34938        1.92317        0.04423
O          0.12966        2.84792       -0.58951
O         -1.36676        1.99101        0.70529
Br        -2.12289       -0.79132       -0.06966
H          4.31841       -0.26783        1.02596
