17
id_1338_cb.log	Energy: -576734.7995563
C          0.01366        1.18989        0.54570
H          0.52605        2.13350        0.71576
C         -1.33781        1.20027        0.20461
H         -1.87805        2.13689        0.10819
C         -1.98550       -0.01256       -0.00624
C         -1.31550       -1.22533        0.11717
H         -1.83822       -2.16251       -0.04684
C          0.03575       -1.21406        0.45903
H          0.56619       -2.15783        0.56022
C          0.71752       -0.01194        0.67636
C          2.19403       -0.01396        0.99299
H          2.45793       -0.91508        1.55167
H          2.44822        0.86755        1.58831
C          2.99405        0.02665       -0.31990
O          3.45280       -1.06370       -0.76094
O          3.10925        1.14883       -0.88779
Cl        -3.68681       -0.01278       -0.42976
