23
id_1747_cb.log	Energy: -1951081.6491772
C          1.07025        2.65134       -1.26386
H          1.89450        3.37248       -1.27925
H          0.13101        3.21367       -1.29774
H          1.13502        2.03861       -2.16957
C          1.16724        1.78943        0.00001
H          2.15488        1.33070       -0.00001
C          1.07028        2.65131        1.26390
H          0.13104        3.21364        1.29781
H          1.89453        3.37244        1.27929
H          1.13507        2.03855        2.16959
C          0.12061        0.67407        0.00000
C         -1.20040        1.13260        0.00001
H         -1.28718        2.21768        0.00002
C         -2.49833        0.55479        0.00002
C         -2.76938       -0.92049        0.00001
O         -3.97625       -1.28370        0.00003
C         -1.73016       -1.89063       -0.00001
H         -2.10841       -2.91078       -0.00001
C         -0.35000       -1.78678       -0.00001
H          0.15341       -2.75028       -0.00002
C          0.49547       -0.67538       -0.00001
Br         2.35497       -1.15537       -0.00002
O         -3.51265        1.31116        0.00003
