34
id_147_ca.log	Energy: -352522.1671060
C          0.01571        2.10636        1.06887
H          0.83422        2.78593        0.84155
H          0.23570        1.53729        1.96982
H         -0.91095        2.66627        1.18723
N         -0.15390        1.17720       -0.09236
C         -1.44341        0.45818       -0.09573
C         -2.02217        0.19081       -1.33053
H         -1.53730        0.52795       -2.24309
C         -3.22712       -0.50407       -1.37445
H         -3.69017       -0.71165       -2.33322
C         -3.83463       -0.92351       -0.19263
H         -4.77483       -1.46384       -0.22842
C         -3.23771       -0.64719        1.03514
H         -3.70852       -0.97133        1.95711
C         -2.03235        0.04936        1.09407
H         -1.57090        0.26263        2.05213
C          1.02884        0.22548       -0.31548
H          0.76320       -0.28960       -1.24555
C          1.18121       -0.79923        0.80052
H          1.42276       -0.29487        1.74389
H          0.25360       -1.36120        0.94249
C          2.32243       -1.75788        0.43330
H          2.45341       -2.48442        1.24080
H          2.03881       -2.32129       -0.46515
C          3.62762       -1.00583        0.16844
H          3.95774       -0.51780        1.09518
H          4.41408       -1.70899       -0.12427
C          3.43757        0.05643       -0.91567
H          3.19200       -0.43047       -1.86823
H          4.36183        0.62147       -1.06922
C          2.31046        1.02136       -0.53453
H          2.15630        1.77506       -1.31553
H          2.58814        1.54089        0.39013
H         -0.16045        1.77601       -0.92910
