10
id_1883_cb.log	Energy: -3394982.7054169
C          0.05049        0.36872        1.93630
H          0.99116        0.82251        2.25718
H         -0.03477       -0.62747        2.37547
H         -0.77958        0.98843        2.28710
C          0.01495        0.28581        0.42748
C          0.14001        1.65351       -0.32191
O          0.40325        2.63003        0.42284
O         -0.01061        1.65632       -1.55947
Br         1.51474       -0.82346       -0.16999
Br        -1.64476       -0.58575       -0.11795
