25
id_1664_cb.log	Energy: -382635.9087099
C          3.13230        1.19161        0.90709
H          3.23697        2.08871        0.28968
H          3.90745        1.21175        1.67884
H          2.15420        1.23167        1.41368
N          3.30805        0.00000        0.08532
C          3.13230       -1.19159        0.90711
H          3.90745       -1.21172        1.67886
H          3.23699       -2.08870        0.28971
H          2.15420       -1.23166        1.41370
C          2.41032       -0.00001       -1.07782
H          2.64522        0.88572       -1.67670
H          2.64522       -0.88575       -1.67668
C          0.92907       -0.00001       -0.75726
C          0.23895        1.20631       -0.58810
H          0.76310        2.14731       -0.73006
C         -1.10800        1.21987       -0.25056
H         -1.64863        2.14937       -0.12073
C         -1.75399       -0.00000       -0.08645
C         -1.10800       -1.21988       -0.25055
H         -1.64864       -2.14937       -0.12070
C          0.23895       -1.20632       -0.58809
H          0.76310       -2.14732       -0.73004
N         -3.17123        0.00000        0.26722
O         -3.73409        1.07508        0.40817
O         -3.73411       -1.07507        0.40814
