23
id_1806_cb.log	Energy: -254366.4714124
C          2.74610       -0.24559        1.25360
H          2.57511       -1.32821        1.25705
H          2.32198        0.16720        2.17438
H          3.82832       -0.07776        1.26803
C          2.11588        0.39778        0.01441
H          2.32535        1.47432        0.04578
C          2.74646       -0.17230       -1.26016
H          3.82925       -0.00733       -1.26356
H          2.32454        0.29596       -2.15508
H          2.57129       -1.25219       -1.32792
C          0.60808        0.23291        0.00703
C         -0.24478        1.33868        0.02154
H          0.18237        2.33896        0.04329
C         -1.62972        1.19497        0.01289
H         -2.27143        2.07251        0.02616
C         -2.21142       -0.07797       -0.01188
C         -1.36397       -1.19568       -0.02417
H         -1.80036       -2.19144       -0.04045
C          0.01649       -1.03620       -0.01507
H          0.64672       -1.92320       -0.02314
N         -3.60000       -0.23235       -0.08872
H         -3.92415       -1.10836        0.30858
H         -4.10777        0.54631        0.31874
