26
id_1795_ca.log	Energy: -476556.4733249
C         -4.51048       -1.49497        0.00710
H         -4.19061       -2.04726       -0.88030
H         -5.60205       -1.43967        0.00690
H         -4.19057       -2.03962        0.89920
C         -3.94192       -0.09710        0.00105
H         -4.23389        0.46429       -0.88991
H         -4.23415        0.47208        0.88698
O         -2.50004       -0.22307        0.00189
C         -1.81415        0.91181       -0.00403
O         -2.31792        2.01668       -0.01007
C         -0.33515        0.68971       -0.00188
C          0.49055        1.81264       -0.00602
H          0.05718        2.80816       -0.01138
C          1.86392        1.63417       -0.00680
C          2.44887        0.37965       -0.00394
H          3.52559        0.25033       -0.00743
C          1.59081       -0.71056       -0.00002
C          0.21020       -0.59150        0.00142
H         -0.41892       -1.47274        0.00232
N          2.18077       -2.05431       -0.00093
O          3.39574       -2.14267       -0.00624
O          1.42376       -3.00818        0.00401
N          2.73254        2.81315        0.01356
H          2.28229        3.62251       -0.43601
H          3.62026        2.63710       -0.47682
H          2.96356        3.08779        0.97987
