31
id_1230_ca.log	Energy: -361833.1348077
C         -2.74390       -1.88875       -0.49500
H         -3.59603       -1.24595       -0.72961
H         -2.96728       -2.46529        0.40883
H         -2.60793       -2.58546       -1.32540
C         -1.46554       -1.09313       -0.31609
C         -0.23947       -1.97223       -0.04978
H         -0.38825       -2.52041        0.88833
H         -0.19762       -2.70583       -0.86065
C          1.03695       -1.16516       -0.00749
C          1.62446       -0.72568       -1.20002
H          1.17971       -1.01424       -2.14965
C          2.76885        0.06502       -1.17778
H          3.21802        0.39177       -2.11067
C          3.33813        0.43854        0.04088
H          4.22999        1.05719        0.05824
C          2.75830        0.01361        1.23286
H          3.19626        0.29764        2.18476
C          1.61520       -0.78691        1.20779
H          1.17158       -1.12965        2.14030
N         -1.61579       -0.15004        0.85640
H         -0.68052        0.19988        1.11771
C         -2.53560        1.01849        0.68960
H         -3.53929        0.63909        0.50307
H         -2.52381        1.55092        1.64055
C         -2.10377        1.93607       -0.45144
H         -2.73010        2.83180       -0.41985
H         -2.24488        1.46991       -1.43011
C         -0.70151        2.33939       -0.31941
N          0.41252        2.62427       -0.18704
H         -1.26875       -0.46637       -1.18996
H         -1.94082       -0.70021        1.66386
