52
id_1625_ca.log	Energy: -547519.1986616
C          3.50037        1.49911       -0.18367
H          3.53610        1.73743        0.88306
H          2.50988        1.76292       -0.57139
H          4.24269        2.11678       -0.69496
C          3.80167        0.04000       -0.46172
H          4.78963       -0.26682       -0.11092
H          3.73582       -0.16501       -1.53014
N          2.81114       -0.85457        0.23533
C          3.20255       -1.07630        1.67410
H          4.00394       -1.81893        1.65604
H          3.61249       -0.13201        2.03529
C          2.03145       -1.50579        2.53478
H          1.25760       -0.73307        2.54675
H          2.39063       -1.63978        3.55827
H          1.58909       -2.45027        2.20909
C          2.61071       -2.16236       -0.48154
H          3.59186       -2.64248       -0.50932
H          1.95236       -2.75939        0.15027
C          2.02640       -2.00376       -1.88485
H          2.81717       -1.74743       -2.59569
H          1.65892       -2.99481       -2.17298
C          0.89668       -0.97740       -1.99165
H          1.29068        0.02796       -1.78107
H          0.55553       -0.94322       -3.03215
C         -0.30345       -1.26145       -1.08776
H          0.01828       -1.46963       -0.05702
H         -0.81702       -2.16541       -1.43717
C         -1.28514       -0.07890       -1.07101
H         -1.49255        0.19778       -2.11295
C         -2.62033       -0.39754       -0.41472
C         -2.77809       -1.42860        0.51452
H         -1.93568       -2.06380        0.77318
C         -4.01556       -1.65897        1.11800
H         -4.11944       -2.46587        1.83736
C         -5.11216       -0.86336        0.79906
H         -6.07485       -1.04537        1.26676
C         -4.96521        0.16929       -0.12793
H         -5.81464        0.79449       -0.38652
C         -3.72989        0.39784       -0.72515
H         -3.61555        1.20538       -1.44536
C         -0.64796        1.13339       -0.40348
C         -0.30691        1.08901        0.95440
H         -0.53783        0.19611        1.53229
C          0.29653        2.17983        1.57563
H          0.55493        2.12546        2.62937
C          0.55544        3.34294        0.84876
H          1.02071        4.19666        1.33181
C          0.21210        3.40102       -0.49991
H          0.40857        4.30203       -1.07342
C         -0.38130        2.30068       -1.12181
H         -0.64138        2.34796       -2.17660
H          1.90661       -0.35782        0.24652
