28
id_1673_ca.log	Energy: -326482.2732084
C          3.11374        0.39179       -0.80782
H          3.53378        1.20198       -0.21167
H          2.28138        0.74994       -1.41311
H          3.87946       -0.05178       -1.44364
N          2.61143       -0.66641        0.11274
C          2.02479       -1.80456       -0.64945
H          1.66980       -2.55336        0.05862
H          2.80575       -2.22032       -1.28557
H          1.20250       -1.42897       -1.25808
C          1.68365       -0.12863        1.18030
H          1.47617       -0.97327        1.84018
H          2.26331        0.62020        1.72304
C          0.41701        0.45964        0.62155
C          0.35537        1.81359        0.29800
H          1.22364        2.44754        0.45355
C         -0.82753        2.34594       -0.21765
H         -0.88293        3.39995       -0.47031
C         -1.93938        1.53859       -0.40480
H         -2.86753        1.93786       -0.80114
C         -1.88017        0.18014       -0.07120
C         -0.70393       -0.36144        0.44628
H         -0.64169       -1.40870        0.72265
O         -3.02182       -0.53531       -0.28021
C         -2.98925       -1.92077        0.03582
H         -2.23227       -2.44155       -0.56005
H         -3.97783       -2.30761       -0.21009
H         -2.78914       -2.07656        1.10105
H          3.42431       -1.03379        0.62084
