20
id_1186_ca.log	Energy: -559586.1590952
C          1.63222        1.92544        0.02459
H          1.92422        2.96888        0.05196
C          2.60988        0.93377        0.04333
H          3.66384        1.19080        0.08627
C          2.21724       -0.39550        0.00040
C          0.88748       -0.77990       -0.06031
H          0.60349       -1.82713       -0.10376
C         -0.06333        0.23370       -0.07918
C          0.28605        1.58129       -0.03734
H         -0.47979        2.35003       -0.06370
S         -1.78782       -0.20774       -0.12559
O         -2.48044        0.82468       -0.88949
O         -1.87519       -1.60542       -0.53544
N         -2.38177       -0.12912        1.40755
H         -2.32796        0.81424        1.79589
H         -1.94317       -0.81250        2.02640
N          3.24727       -1.44022        0.03786
H          2.96375       -2.27059       -0.49935
H          4.13694       -1.10395       -0.35508
H          3.43300       -1.74738        1.00339
