21
id_1510_cb.log	Energy: -323957.1187774
C          0.60040        2.69552        0.00001
H          1.61178        3.09498        0.00001
H          0.07112        3.02631        0.89451
H          0.07112        3.02632       -0.89450
N          0.68380        1.22303        0.00000
C          1.88249        0.65138       -0.00000
H          2.73848        1.31801       -0.00000
C          2.09470       -0.76874        0.00000
C          0.92101       -1.53490        0.00001
H          0.99444       -2.62003        0.00001
C         -0.35212       -0.93452        0.00001
C         -0.47977        0.47976        0.00000
C         -1.75531        1.09448       -0.00001
H         -1.85046        2.17393       -0.00002
C         -2.88228        0.30803       -0.00001
H         -3.86130        0.77646       -0.00002
C         -2.77860       -1.10652       -0.00000
H         -3.68141       -1.70961       -0.00000
C         -1.54842       -1.71053        0.00001
H         -1.45556       -2.79307        0.00001
O          3.29531       -1.23728       -0.00001
