17
id_1173_cb.log	Energy: -205052.9705654
C          2.90424       -0.00000        0.00362
H          3.30534       -0.88622       -0.49678
H          3.29279       -0.00021        1.02885
H          3.30534        0.88642       -0.49641
C          1.39699        0.00000       -0.01202
C          0.67066       -1.19448       -0.00869
H          1.20483       -2.14192       -0.02212
C         -0.72024       -1.20255        0.00513
H         -1.26250       -2.14487        0.00321
C         -1.43905       -0.00000        0.01397
C         -0.72025        1.20255        0.00513
H         -1.26250        2.14487        0.00321
C          0.67065        1.19449       -0.00869
H          1.20482        2.14192       -0.02212
N         -2.83648       -0.00000        0.09078
H         -3.25537        0.83227       -0.31201
H         -3.25537       -0.83228       -0.31201
