27
id_1571_ca.log	Energy: -232256.6105159
C          1.20853        0.30855        1.54292
H          0.73758        1.27363        1.74857
H          2.23793        0.35695        1.90901
H          0.69182       -0.46969        2.11057
C          1.26576       -0.00167        0.05222
C          2.02201        1.08458       -0.70889
H          1.60954        2.08062       -0.52774
H          2.00980        0.88463       -1.78580
H          3.06195        1.08425       -0.37247
C          1.91485       -1.35981       -0.20125
H          1.88119       -1.61674       -1.26572
H          1.43555       -2.15638        0.37376
H          2.96272       -1.30463        0.10490
N         -0.14693       -0.06056       -0.53776
C         -0.99905       -1.22640       -0.07158
H         -0.80385       -2.07799       -0.72183
H         -0.70361       -1.46826        0.94956
C         -2.42116       -0.69092       -0.10991
H         -2.80856       -0.70397       -1.13347
H         -3.08170       -1.28396        0.52477
C         -2.23581        0.74518        0.37608
H         -2.04988        0.75777        1.45507
H         -3.08581        1.39378        0.15832
C         -0.99166        1.19961       -0.37545
H         -0.41570        1.96548        0.13855
H         -1.22925        1.54615       -1.38153
H         -0.00204       -0.19242       -1.54505
