22
id_1509_ca.log	Energy: -253900.6201434
C          2.56195        0.69675        0.03517
H          3.50308        1.23626        0.06265
C          2.55811       -0.69814       -0.01108
H          3.48994       -1.25299       -0.01683
C          1.34880       -1.37919       -0.04865
H          1.31630       -2.46445       -0.08442
C          0.16441       -0.65091       -0.03877
C          0.12945        0.73989        0.00821
C          1.36365        1.39918        0.04542
H          1.36848        2.48517        0.08195
C         -1.16410        1.52062        0.05233
H         -1.29465        1.91005        1.06930
H         -1.08351        2.38716       -0.61002
C         -2.37181        0.66615       -0.32172
H         -2.40372        0.49044       -1.40328
H         -3.29951        1.16965       -0.04119
C         -2.30522       -0.66797        0.39387
H         -3.16655       -1.30460        0.19481
H         -2.17253       -0.55035        1.47140
N         -1.10015       -1.41263       -0.10697
H         -0.99598       -2.28893        0.42023
H         -1.27169       -1.68727       -1.08449
