25
id_1810_ca.log	Energy: -504494.1903055
C         -2.42852        1.25678        1.16208
H         -3.07006        1.25425        2.05009
H         -2.64057        2.15960        0.58310
H         -1.38788        1.29602        1.50186
C         -2.68447       -0.00439        0.34911
H         -3.72206       -0.00914       -0.00172
C         -2.41627       -1.26512        1.15888
H         -1.37591       -1.29426        1.50047
H         -2.61775       -2.16864        0.57720
H         -3.05932       -1.27173        2.04576
S         -1.75873        0.00280       -1.25292
C         -0.06797        0.00309       -0.68035
C          0.60428       -1.20671       -0.47606
H          0.09030       -2.14635       -0.65048
C          1.93076       -1.21355       -0.05715
H          2.46289       -2.14666        0.10052
C          2.56548        0.00233        0.14635
C          1.92960        1.21769       -0.04953
H          2.46018        2.15069        0.11409
C          0.60211        1.21176       -0.46876
H          0.08724        2.15198       -0.63728
N          3.96290       -0.00230        0.60003
H          4.43611        0.88300        0.37765
H          4.49852       -0.76195        0.15922
H          4.02771       -0.13689        1.61879
