21
id_184_cb.log	Energy: -253616.7196682
C          1.65116        1.19832        0.02328
H          2.47753        1.90302        0.07130
C          0.33589        1.65983       -0.00989
H          0.14248        2.72961        0.01149
C         -0.71467        0.74984       -0.05677
C         -0.43681       -0.62152       -0.07348
C          0.86886       -1.09201       -0.04636
H          1.08116       -2.15919       -0.05420
C          1.93214       -0.17650        0.00380
N          3.25729       -0.62872       -0.02504
H          3.36741       -1.55672        0.37084
H          3.90605        0.01746        0.41270
C         -1.72415       -1.41233       -0.14063
H         -1.90888       -1.73465       -1.17389
H         -1.70970       -2.31182        0.48182
C         -2.78179       -0.38244        0.30770
H         -3.77054       -0.57754       -0.11438
H         -2.86949       -0.41323        1.39900
C         -2.20734        0.98712       -0.11248
H         -2.54035        1.80360        0.53533
H         -2.51661        1.23856       -1.13585
