26
id_1198_cb.log	Energy: -436774.1512856
C          2.51452        0.90078        1.52553
H          2.12485        1.92452        1.56230
H          3.60893        0.96017        1.52612
H          2.20423        0.39077        2.44403
Si         1.89196       -0.00615       -0.00220
C          2.50380        0.89874       -1.53551
H          3.59821        0.95786       -1.54383
H          2.11418        1.92255       -1.57092
H          2.18702        0.38760       -2.45116
C          2.53030       -1.77438       -0.00343
H          3.62619       -1.78049       -0.00665
H          2.19275       -2.32509       -0.88831
H          2.19794       -2.32442        0.88381
C          0.01215       -0.02100        0.00443
C         -0.71692        1.18124        0.00506
H         -0.18909        2.13433        0.00072
C         -2.10545        1.20332        0.00743
H         -2.64322        2.14829        0.00660
C         -2.83350        0.00294        0.00934
C         -2.12587       -1.20726        0.00705
H         -2.67855       -2.14357        0.00572
C         -0.73494       -1.20904        0.00499
H         -0.22276       -2.16940        0.00066
N         -4.22411        0.01607        0.07542
H         -4.65972       -0.81708       -0.30593
H         -4.64415        0.85553       -0.30960
