24
id_1298_cb.log	Energy: -348607.7316309
C         -4.03346        0.72408        0.02175
H         -3.80578        1.30328        0.92284
H         -5.08683        0.44481        0.02219
H         -3.81275        1.32667       -0.86564
O         -3.30305       -0.49401        0.00284
C         -1.94242       -0.39715       -0.00196
C         -1.25704       -1.64064       -0.03331
H         -1.84397       -2.55308       -0.06132
C          0.11036       -1.67216       -0.03641
H          0.61012       -2.63448       -0.08148
C          0.87582       -0.47305       -0.00570
C          0.18337        0.77102        0.00489
C         -1.23989        0.78392        0.01274
H         -1.74385        1.74417        0.02579
C          0.91914        1.98559       -0.00136
H          0.38041        2.92849        0.00258
C          2.29170        1.94985       -0.01690
H          2.85936        2.87585       -0.02325
C          2.98954        0.72447       -0.00799
H          4.07609        0.71755       -0.00105
C          2.30904       -0.47932        0.00326
N          2.99870       -1.69236       -0.04459
H          2.58454       -2.42775        0.51866
H          3.97920       -1.58657        0.19606
