29
id_1057_cb.log	Energy: -256627.1526491
C          3.62609        0.38078       -0.56236
H          3.56492        0.83728       -1.55526
H          4.43588       -0.35471       -0.56677
H          3.88507        1.16874        0.15580
C          2.30325       -0.26677       -0.17573
C          1.16797        0.76139       -0.25884
H          1.45229        1.63440        0.34884
H          1.09059        1.11510       -1.29765
C         -0.20947        0.27394        0.19813
H         -0.14924        0.00435        1.26471
C         -0.68058       -0.96678       -0.57066
H         -0.68899       -0.73064       -1.64589
H          0.02749       -1.79316       -0.43373
C         -2.07936       -1.41115       -0.13512
H         -2.39749       -2.28146       -0.72004
H         -2.04053       -1.73088        0.91570
C         -3.09467       -0.27576       -0.27185
H         -3.19471       -0.00856       -1.33325
H         -4.08265       -0.60400        0.07008
C         -2.63853        0.95584        0.51199
H         -2.61504        0.71174        1.58323
H         -3.35445        1.77608        0.38747
C         -1.24380        1.39861        0.06709
H         -0.91560        2.27120        0.64553
H         -1.28602        1.71356       -0.98648
N          2.45096       -0.89455        1.14673
H          1.57026       -1.35354        1.38160
H          2.53839       -0.13863        1.82993
H          2.09768       -1.07570       -0.88676
