18
id_1456_cb.log	Energy: -296759.2574235
C         -2.74085        0.82283        0.24801
H         -2.51843        1.81359       -0.14181
H         -2.71751        0.86084        1.34748
H         -3.74605        0.53973       -0.06962
N         -1.79633       -0.16235       -0.27492
C         -2.20829       -1.53639       -0.02202
H         -3.28133       -1.61576       -0.20274
H         -2.00199       -1.84598        1.01383
H         -1.70205       -2.22480       -0.70161
C         -0.44588        0.11888       -0.12959
C          0.51840       -0.87947       -0.03460
H          0.26936       -1.93267       -0.01706
C          1.89139       -0.51416        0.03852
N          2.22098        0.82069        0.03638
C          1.20917        1.67688       -0.03492
H          1.48253        2.73152       -0.02556
N         -0.09558        1.43414       -0.11697
O          2.82105       -1.38815        0.11166
