33
id_147_cb.log	Energy: -352235.2261749
C         -0.04961        2.27098       -0.04648
H          0.91137        2.67682       -0.36414
H         -0.11146        2.34853        1.04853
H         -0.83378        2.89972       -0.47601
N         -0.18522        0.90876       -0.54546
C         -1.42572        0.29271       -0.27434
C         -1.71597       -0.98246       -0.80176
H         -0.98176       -1.49395       -1.41520
C         -2.94526       -1.58776       -0.58069
H         -3.13310       -2.56942       -1.00614
C         -3.93821       -0.94471        0.16077
H         -4.89958       -1.41953        0.32749
C         -3.67065        0.31951        0.67239
H         -4.42574        0.84450        1.25065
C         -2.43465        0.93268        0.46545
H         -2.26568        1.91368        0.89240
C          1.00893        0.06679       -0.30875
H          0.75593       -0.93999       -0.65258
C          1.38064       -0.04031        1.17544
H          1.68071        0.94807        1.54879
H          0.50071       -0.35486        1.75099
C          2.53939       -1.02143        1.37176
H          2.80909       -1.07962        2.43185
H          2.21582       -2.02646        1.06787
C          3.75133       -0.60966        0.53324
H          4.12752        0.35655        0.89700
H          4.56270       -1.33572        0.65445
C          3.37642       -0.47482       -0.94423
H          3.08015       -1.45908       -1.33213
H          4.24264       -0.14849       -1.52965
C          2.21837        0.51054       -1.13422
H          1.93819        0.57922       -2.19108
H          2.55277        1.50631       -0.81646
