17
id_1995_ca.log	Energy: -737810.7931203
C         -1.19653        1.07489       -0.02111
H         -2.14400        1.60195       -0.02911
C          0.00572        1.75728       -0.03092
C          1.20945        1.06265       -0.00975
H          2.16162        1.58281       -0.01002
C          1.18846       -0.32189       -0.00585
C         -0.00072       -1.07992        0.00480
C         -1.19086       -0.31775        0.00614
N         -2.48683       -0.97480        0.04093
O         -3.49039       -0.28969        0.02822
O         -2.51821       -2.20533        0.08346
O          0.06371       -2.40332        0.04752
H         -0.84571       -2.77297        0.08587
N          2.48714       -0.99267       -0.00315
O          2.59025       -2.07112       -0.56074
O          3.41343       -0.41544        0.54518
Cl         0.01544        3.49342       -0.06590
