21
id_153_ca.log	Energy: -229994.9284812
C          0.99391        2.75334       -0.00115
H          2.08398        2.78804        0.05851
H          0.58263        3.31196        0.84535
H          0.68303        3.27054       -0.91467
C          0.49768        1.33241        0.00244
C          1.38042        0.25440        0.00969
H          2.45055        0.45010        0.01785
C          0.93621       -1.07402        0.00439
C         -0.43494       -1.32094       -0.00478
H         -0.81834       -2.33756       -0.00884
C         -1.30667       -0.24033       -0.01021
C         -0.87852        1.07285       -0.00677
H         -1.59771        1.88811       -0.01265
N         -2.75324       -0.51006        0.00659
H         -3.28829        0.28619       -0.36313
H         -2.99115       -1.33451       -0.55978
C          1.92703       -2.20711       -0.00217
H          2.64770       -2.09761        0.81386
H          2.49462       -2.21828       -0.93846
H          1.42599       -3.17187        0.10495
H         -3.09110       -0.68826        0.96219
