39
id_1281_ca.log	Energy: -472051.3353873
C         -4.94539        1.37179       -0.28866
H         -5.91080        1.86828       -0.27534
C         -3.88872        1.93869       -1.00401
H         -4.03850        2.86951       -1.54168
C         -2.64030        1.31657       -1.03181
H         -1.81948        1.75729       -1.59222
C         -2.47449        0.13267       -0.32099
C         -3.52755       -0.44081        0.39451
C         -4.77379        0.17683        0.41153
H         -5.59876       -0.25965        0.96733
C         -3.09063       -1.73164        1.04490
H         -3.48075       -1.85447        2.05806
H         -3.43535       -2.58668        0.45205
C         -1.55206       -1.63406        1.01554
H         -1.05558       -2.60421        0.95709
H         -1.20564       -1.12029        1.92022
C         -1.24842       -0.74216       -0.19889
N          0.00000        0.06947        0.00001
H         -0.14028        0.68512        0.81369
C          1.24842       -0.74217        0.19889
C          1.55205       -1.63406       -1.01554
H          1.05558       -2.60421       -0.95709
H          1.20563       -1.12028       -1.92022
C          3.09062       -1.73164       -1.04492
H          3.48074       -1.85446       -2.05807
H          3.43535       -2.58668       -0.45207
C          3.52754       -0.44081       -0.39451
C          2.47449        0.13266        0.32099
C          2.64031        1.31657        1.03182
H          1.81949        1.75728        1.59224
C          3.88873        1.93868        1.00402
H          4.03852        2.86950        1.54168
C          4.94539        1.37179        0.28865
H          5.91081        1.86828        0.27533
C          4.77379        0.17683       -0.41154
H          5.59875       -0.25965       -0.96735
H         -1.08148       -1.32524       -1.10946
H          1.08149       -1.32525        1.10946
H          0.14028        0.68514       -0.81366
