35
id_1323_cb.log	Energy: -399550.2837393
C         -2.39976       -0.91043        1.39748
H         -1.93404       -1.85590        1.69107
H         -3.47228       -1.10455        1.21232
H         -2.31690       -0.21834        2.24196
N         -1.72749       -0.35447        0.23412
C         -1.71573       -1.31886       -0.86405
H         -2.72131       -1.76207       -1.00047
H         -1.48466       -0.77592       -1.78798
C         -0.67070       -2.42439       -0.70396
H         -0.88580       -3.04345        0.17637
H         -0.76566       -3.08497       -1.57345
C          0.75755       -1.87545       -0.62616
H          0.84033       -1.04463       -1.34097
H          1.46823       -2.63438       -0.96895
C          1.16844       -1.40513        0.77893
H          1.64692       -2.22517        1.32563
H          0.29125       -1.09835        1.35305
C          2.16348       -0.23656        0.73739
C          1.50547        0.98523        0.10792
O          1.84769        1.31999       -1.01754
C          0.48340        1.75419        0.90142
H         -0.07779        1.06428        1.53753
H          1.07024        2.39448        1.57682
C         -0.43453        2.61499        0.03386
H         -1.04246        3.24146        0.69681
H          0.18463        3.29478       -0.56148
C         -1.36637        1.83533       -0.90070
H         -0.77579        1.25336       -1.61953
H         -1.94253        2.55970       -1.48776
C         -2.34162        0.91238       -0.16832
H         -3.23876        0.72854       -0.78731
H         -2.69103        1.42221        0.73840
O          3.32139       -0.58421        0.00173
H          3.23066       -0.13258       -0.85827
H          2.45874        0.02861        1.76089
