24
id_1608_ca.log	Energy: -543038.9265028
C         -2.64416        2.00768       -0.47741
H         -1.59424        2.18924       -0.72568
H         -2.82338        2.37836        0.53716
H         -3.26109        2.59004       -1.16603
C         -2.98841        0.52632       -0.58295
H         -2.76394        0.15130       -1.58881
H         -4.05934        0.37486       -0.40654
C         -2.21356       -0.29786        0.44185
C         -0.71351       -0.22445        0.28399
C         -0.09346       -0.64666       -0.89567
H         -0.68315       -1.05512       -1.71328
C          1.28540       -0.55010       -1.04471
H          1.76873       -0.88079       -1.95746
C          2.03709       -0.01441       -0.00329
C          1.44510        0.42009        1.17584
H          2.04923        0.83606        1.97462
C          0.06380        0.30785        1.31202
H         -0.41219        0.64127        2.22978
Cl         3.77174        0.11664       -0.18609
N         -2.65835       -1.73399        0.33520
H         -2.17420       -2.32694        1.01971
H         -2.47106       -2.11397       -0.60111
H         -2.48728        0.01289        1.45235
H         -3.66878       -1.81288        0.50452
