12
id_1899_ca.log	Energy: -359028.0136454
C         -2.19851        0.06507        0.09419
H         -2.24282        0.18654        1.18158
H         -3.11687       -0.43411       -0.22545
H         -2.17704        1.05901       -0.36309
C         -0.98379       -0.76574       -0.32363
H         -0.90317       -0.84512       -1.41389
H         -1.04140       -1.78333        0.07953
P          0.56714       -0.07088        0.26477
O          1.79905       -0.82886       -0.14464
O          0.65412        1.44448       -0.30366
H          0.01102        2.06817        0.08241
H          0.43163        0.09115        1.65044
