16
id_1539_cb.log	Energy: -309086.6321086
C          1.29661       -1.77457        0.00000
H          1.82692       -2.72474        0.00000
C         -0.07184       -1.75614        0.00000
H         -0.64562       -2.67967        0.00000
C         -0.76767       -0.51750        0.00000
C          0.00000        0.67835        0.00000
C          1.40986        0.64742        0.00000
H          1.96366        1.58428        0.00000
C          2.10855       -0.57136        0.00000
O          3.40421       -0.66289        0.00000
C         -0.75841        1.87772        0.00000
H         -0.24215        2.83684        0.00000
N         -2.07545        1.90201        0.00000
C         -2.70155        0.69362        0.00000
H         -3.78681        0.72341        0.00000
N         -2.13070       -0.48805        0.00000
