35
id_1631_cb.log	Energy: -469872.3006400
C         -5.98756       -0.34045       -0.20868
H         -6.29645       -0.03024       -1.21295
H         -6.16404        0.49423        0.47631
H         -6.62140       -1.17733        0.09687
C         -4.52415       -0.74735       -0.19913
H         -4.37226       -1.62086       -0.85367
H         -4.23513       -1.05418        0.81196
N         -3.66928        0.37264       -0.60511
H         -4.02240        0.73172       -1.49069
C         -2.27452       -0.02227       -0.79360
H         -2.16148       -0.96274       -1.35545
H         -1.76757        0.77223       -1.35140
C         -1.58607       -0.16756        0.57015
C         -0.09308       -0.31590        0.40513
C          0.49458       -1.57092        0.39531
H         -0.11415       -2.45533        0.56241
C          1.87035       -1.71517        0.17587
H          2.31179       -2.70493        0.17419
C          2.66098       -0.59382       -0.02646
C          2.06821        0.69014       -0.01309
C          0.70433        0.82051        0.19596
H          0.24101        1.80058        0.21104
O          2.92988        1.72939       -0.21495
C          2.37039        3.03497       -0.20464
H          1.62710        3.15061       -1.00058
H          3.20126        3.71858       -0.37793
H          1.90741        3.25653        0.76276
O          4.00918       -0.61142       -0.23948
C          4.63689       -1.88540       -0.25085
H          4.51100       -2.39423        0.71075
H          5.69535       -1.69690       -0.42928
H          4.23541       -2.51441       -1.05250
O         -1.88789        0.97931        1.35112
H         -2.77369        1.24938        1.03465
H         -1.96822       -1.07011        1.06996
