20
id_1407_cb.log	Energy: -182646.9631563
C          1.62999       -1.41622       -0.13385
H          1.63968       -2.39108        0.36410
H          2.57184       -0.91243        0.10451
H          1.58894       -1.58450       -1.21534
C          0.42458       -0.61446        0.32224
C         -0.91943       -1.30290        0.05301
H         -0.85503       -1.88382       -0.87322
H         -1.17896       -1.99320        0.85940
C         -1.92715       -0.13890       -0.09822
H         -2.71349       -0.16140        0.65948
H         -2.41017       -0.16949       -1.07804
C         -1.05729        1.11639        0.04013
H         -1.04408        1.45401        1.09281
H         -1.39534        1.95666       -0.57336
N          0.27964        0.67688       -0.36766
C          1.29044        1.63616        0.04522
H          1.08946        2.60776       -0.41541
H          2.28430        1.31269       -0.27510
H          1.30631        1.77315        1.14155
H          0.51221       -0.42693        1.41099
