29
id_1032_cb.log	Energy: -313835.8070172
C         -0.78677       -1.27415        1.31893
H         -1.67720       -1.70273        1.79351
H         -0.22828       -0.73881        2.08597
H         -0.15815       -2.10207        0.96507
C         -1.16656       -0.36986        0.17454
N         -1.92387       -0.73643       -0.79031
O         -2.40823       -2.04213       -0.75274
H         -1.99195       -2.53469       -0.02159
C         -0.62738        1.05399        0.14025
C         -1.04080        1.79055       -1.13542
H         -2.12777        1.89807       -1.19431
H         -0.70652        1.26855       -2.03589
H         -0.59648        2.79177       -1.13068
C         -1.18782        1.81465        1.35283
H         -0.80368        2.84046        1.35238
H         -0.89580        1.34801        2.29914
H         -2.28144        1.85804        1.31255
C          0.91253        1.00737        0.24536
H          1.27812        2.04207        0.27672
H          1.18500        0.56102        1.20975
C          1.61149        0.25324       -0.88774
H          1.62783        0.87258       -1.79251
H          1.04772       -0.65650       -1.14176
C          3.04035       -0.15910       -0.53113
H          3.60587        0.71958       -0.20053
H          3.54073       -0.53380       -1.42956
N          3.15597       -1.18970        0.50718
H          2.56639       -1.97506        0.22770
H          2.72664       -0.83664        1.36214
