32
id_1756_cb.log	Energy: -1287098.6549041
C          3.08181        0.70905       -0.07415
H          4.08956        1.09940        0.02715
C          2.85276       -0.58105       -0.51236
C          1.56843       -1.09651       -0.67255
H          1.44810       -2.10838       -1.04046
C          0.45642       -0.30900       -0.36216
C          0.69314        0.99537        0.13023
C          1.98070        1.50853        0.24201
C          2.17400        2.92662        0.72532
H          2.82802        3.47569        0.04411
H          2.62912        2.93526        1.72487
O          0.93457        3.62619        0.75113
C         -0.05203        2.83310        1.34637
H         -0.95304        3.43260        1.45840
H          0.29574        2.44236        2.31200
O         -0.39656        1.74253        0.50670
N         -0.86275       -0.77678       -0.46051
C         -1.07776       -2.20918       -0.59822
H         -2.13583       -2.36297       -0.82308
H         -0.51497       -2.63943       -1.44078
C         -0.72755       -2.99594        0.64987
H          0.28527       -2.79850        1.00177
H         -0.84560       -4.06370        0.46647
Cl        -1.83120       -2.57926        2.01880
C         -1.82131        0.03514       -1.21425
H         -1.36609        0.98414       -1.49756
H         -2.10475       -0.48355       -2.13914
C         -3.05304        0.28732       -0.36047
H         -2.80431        0.87482        0.52222
H         -3.53859       -0.64287       -0.06184
Cl        -4.27234        1.22950       -1.30352
Cl         4.21937       -1.60776       -0.90298
