40
id_1208_ca.log	Energy: -529756.3747484
C         -6.03670        0.34941       -0.17805
H         -6.35144        1.33372        0.17941
H         -6.57474       -0.41665        0.38878
H         -6.34695        0.25873       -1.22568
C         -4.54670        0.17364       -0.04943
C         -3.97381       -1.10134       -0.07866
H         -4.61634       -1.97494       -0.17351
C         -2.59713       -1.28583        0.02724
C         -1.76249       -0.15302        0.12931
C         -2.30959        1.14550        0.18942
C         -3.70044        1.27236        0.10259
H         -4.13361        2.26892        0.16817
C         -1.49215        2.39310        0.41008
H         -2.14275        3.19593        0.76838
H         -1.00629        2.73058       -0.51000
H         -0.69947        2.23152        1.14671
N         -0.37236       -0.43950        0.26628
N          0.39727        0.37897       -0.27707
C          1.78808        0.11715       -0.13921
C          2.36275       -1.17177       -0.02761
C          3.75015       -1.26903        0.07163
H          4.22154       -2.24580        0.14151
C          4.55349       -0.13108        0.07095
C          3.98656        1.13342       -0.07024
H          4.62451        2.01408       -0.08969
C          2.60587        1.26675       -0.19473
C          2.01191        2.64302       -0.34897
H          1.33274        2.68985       -1.20530
H          2.80573        3.38098       -0.48919
H          1.43357        2.92671        0.53636
O          5.90471       -0.31562        0.19235
H          6.36038        0.54315        0.18195
C          1.57522       -2.45580       -0.07643
H          0.80481       -2.42280       -0.85179
H          1.06422       -2.65571        0.86947
H          2.25076       -3.28934       -0.28735
C         -2.02003       -2.67728       -0.00070
H         -1.44664       -2.85174       -0.91773
H         -2.82272       -3.41813        0.04347
H         -1.33934       -2.84558        0.83961
