20
id_1020_ca.log	Energy: -1772482.5218227
C          1.42255       -0.12340        0.32180
H          1.48288       -0.24417        1.41081
H          1.58263       -1.11539       -0.12075
C          2.50162        0.85509       -0.14056
H          2.29562        1.84682        0.27672
H          2.47652        0.95853       -1.23270
C          3.90613        0.48112        0.29502
H          3.97250        0.32136        1.37210
H          4.63195        1.23802       -0.00086
N          4.34834       -0.79788       -0.35247
H          4.27673       -0.73135       -1.37459
H          3.77496       -1.59310       -0.05024
C          0.02770        0.36998       -0.06588
H         -0.03414        0.49546       -1.15269
H         -0.15889        1.34976        0.38754
C         -1.03132       -0.61149        0.39198
H         -1.04489       -0.72982        1.47509
H         -0.92525       -1.58609       -0.08385
Br        -2.83009        0.01598       -0.08956
H          5.32413       -1.01204       -0.11891
