21
id_1327_ca.log	Energy: -182920.1894814
C         -1.94345       -1.39304       -0.05268
H         -2.91613       -1.74679       -0.40373
H         -1.77210       -1.80215        0.94804
H         -1.17493       -1.79515       -0.72173
C         -1.90301        0.13200       -0.03086
H         -2.69285        0.53104        0.61331
H         -2.06607        0.54121       -1.03472
C         -0.59212        0.64436        0.50018
C          0.03619        1.88586       -0.00077
H          0.71338        2.43757        0.64089
H         -0.45321        2.43835       -0.79452
N          0.56835        0.57464       -0.42543
C          1.87750        0.06455        0.04695
H          2.63896        0.47770       -0.61668
H          2.02483        0.47154        1.04970
C          1.87036       -1.45031        0.04359
H          2.84442       -1.81497        0.37810
H          1.68485       -1.83781       -0.96249
H          1.10296       -1.83726        0.72074
H         -0.30942        0.32493        1.50045
H          0.32406        0.28868       -1.37780
