20
id_1348_cb.log	Energy: -182653.5445226
C         -2.45597       -0.01136        0.09737
H         -2.52115       -0.03284        1.19185
H         -2.97596       -0.89492       -0.28832
H         -2.99208        0.87729       -0.25199
C         -0.99947        0.01670       -0.35168
C         -0.27763        1.26764        0.15865
H         -0.38186        1.30429        1.25347
H         -0.75648        2.17019       -0.23913
C          1.20887        1.23537       -0.20069
H          1.32751        1.30910       -1.28895
H          1.73321        2.08688        0.24598
C          1.84010       -0.06651        0.27798
H          2.89392       -0.11194       -0.01179
H          1.79975       -0.09380        1.38170
N          1.13903       -1.20920       -0.31638
H          1.58351       -2.05780        0.02937
C         -0.25718       -1.22786        0.13032
H         -0.33408       -1.26791        1.23330
H         -0.74039       -2.12864       -0.26239
H         -0.96150        0.02058       -1.45015
