30
id_102_cb.log	Energy: -340515.5415918
C         -2.74362       -2.05346       -0.92227
H         -1.78049       -1.69619       -1.30347
H         -3.26574       -2.55136       -1.74615
H         -2.53764       -2.80530       -0.15040
C         -3.57530       -0.90755       -0.35268
H         -4.55945       -1.28596       -0.04874
H         -3.75348       -0.15601       -1.13330
C         -2.91363       -0.22686        0.85651
H         -2.76835       -0.97765        1.64486
H         -3.60526        0.52550        1.25669
C         -1.58828        0.42102        0.53019
C         -1.52464        1.66141       -0.11516
H         -2.44929        2.18932       -0.35021
C         -0.30427        2.23864       -0.45936
H         -0.28091        3.20815       -0.95464
C          0.93708        1.60491       -0.18522
C          0.87110        0.34051        0.47998
C         -0.36898       -0.20796        0.81350
H         -0.38489       -1.17518        1.32021
C          2.14397       -0.40922        0.78051
H          2.91052        0.28550        1.14978
H          1.96077       -1.13954        1.57968
C          2.70467       -1.15004       -0.44126
H          1.95987       -1.88122       -0.78256
H          2.84553       -0.43632       -1.26257
C          4.02262       -1.85573       -0.13548
H          4.78676       -1.13444        0.17711
H          4.40515       -2.39239       -1.01009
H          3.89763       -2.58192        0.67645
O          2.08186        2.15888       -0.51977
