14
id_1921_ca.log	Energy: -203350.3496609
C         -2.43340        0.01314       -0.00000
H         -3.20134       -0.75712       -0.00000
H         -2.50853        0.63273        0.89484
H         -2.50853        0.63273       -0.89484
O         -1.17974       -0.69469        0.00000
C         -0.09568        0.06324        0.00001
O         -0.08355        1.27450        0.00000
C          1.15537       -0.77987       -0.00000
H          1.19250       -1.40875       -0.88982
H          1.19250       -1.40876        0.88981
N          2.33145        0.12140       -0.00000
H          2.32857        0.73030        0.82760
H          2.32855        0.73032       -0.82759
H          3.20474       -0.41876       -0.00001
