30
id_1599_ca.log	Energy: -592352.9640078
C         -2.74037       -1.41332        1.31064
H         -3.67346       -0.94405        1.64618
H         -1.92678       -1.04382        1.94403
H         -2.82574       -2.49170        1.47854
C         -2.49686       -1.12067       -0.16947
H         -1.51037       -1.51615       -0.44588
C         -3.55094       -1.80938       -1.03422
H         -3.52915       -2.89337       -0.88426
H         -3.38718       -1.60851       -2.09815
H         -4.55423       -1.45273       -0.77237
C         -2.50437        0.38336       -0.46405
H         -3.50590        0.78636       -0.26110
H         -2.29619        0.54790       -1.52945
C         -1.49537        1.17499        0.36533
C         -0.06449        0.71554        0.21569
C          0.53641        0.64123       -1.04478
H         -0.01977        0.92558       -1.93533
C          1.85023        0.20711       -1.17792
H          2.31978        0.15107       -2.15383
C          2.55466       -0.16045       -0.03506
C          1.98045       -0.09950        1.22824
H          2.54741       -0.38919        2.10623
C          0.66556        0.34456        1.34431
H          0.20512        0.40218        2.32671
Cl         4.20646       -0.71254       -0.19619
N         -1.59125        2.62354       -0.04323
H         -1.34990        2.74420       -1.03518
H         -0.95478        3.21003        0.50968
H         -1.77182        1.16405        1.42103
H         -2.54749        2.97553        0.08878
