41
id_1635_cb.log	Energy: -519186.1461836
C         -3.14768        2.28651       -0.44323
H         -3.64868        3.24699       -0.28386
H         -2.74482        2.28278       -1.46392
H         -2.30585        2.23633        0.25535
C         -4.12763        1.12827       -0.25446
H         -4.45263        1.10978        0.79405
C         -5.35402        1.31747       -1.14522
H         -5.86682        2.25594       -0.91179
H         -6.06983        0.49818       -1.01922
H         -5.06000        1.34986       -2.20129
C         -3.47642       -0.21782       -0.56498
H         -3.19719       -0.23930       -1.63429
H         -4.21016       -1.01909       -0.41460
N         -2.32561       -0.50140        0.29335
H         -1.62162        0.21876        0.12429
C         -1.71236       -1.78696       -0.03297
H         -2.47443       -2.56673        0.07489
H         -1.32699       -1.83523       -1.06339
C         -0.58389       -2.06672        0.96421
C          0.56917       -1.09457        0.76843
C          0.80033       -0.04673        1.64458
H          0.17862        0.06889        2.52614
C          1.84199        0.86257        1.41179
H          2.00777        1.67435        2.11055
C          2.65342        0.72149        0.29739
C          2.42348       -0.34661       -0.60145
C          1.39111       -1.23933       -0.36216
H          1.21301       -2.06392       -1.04569
O          3.27717       -0.40502       -1.66429
C          3.06802       -1.45629       -2.59634
H          2.07324       -1.38752       -3.04922
H          3.18572       -2.43447       -2.11833
H          3.82992       -1.33108       -3.36545
O          3.69518        1.54276       -0.02658
C          3.95062        2.62509        0.85688
H          3.08738        3.29644        0.91600
H          4.80217        3.16046        0.43746
H          4.20212        2.26362        1.85974
O         -1.11187       -2.01493        2.27946
H         -1.76339       -1.28882        2.25299
H         -0.21896       -3.08703        0.80251
