12
id_1945_ca.log	Energy: -142934.0314121
C          0.20461        0.96472        0.27892
H          0.04657        1.06318        1.35763
H          0.47224        1.94960       -0.11347
C         -1.06624        0.49783       -0.41863
H         -0.90740        0.33213       -1.48323
H         -1.85597        1.23263       -0.27406
N         -1.55398       -0.78933        0.16186
H         -0.87226       -1.54859        0.03761
H         -2.42585       -1.08280       -0.29461
C          1.32705        0.05287        0.04814
N          2.19582       -0.68820       -0.14016
H         -1.74270       -0.69600        1.16767
