23
id_1135_ca.log	Energy: -358271.4192607
C         -0.63975        2.56383        0.13304
H         -1.50087        2.52857        0.80463
H         -1.00163        2.86212       -0.85461
H          0.05359        3.32605        0.49254
C          0.07154        1.23925        0.05938
C          1.46586        1.21230        0.06828
H          2.02538        2.14104        0.12946
C          2.12551       -0.00098       -0.00897
C          1.46451       -1.21343       -0.08101
H          2.02223       -2.14256       -0.15128
C          0.06988       -1.23925       -0.06269
C         -0.57844        0.00009        0.00095
N         -2.04560        0.00056        0.00299
O         -2.61777       -0.78844        0.73568
O         -2.61963        0.78965       -0.72812
C         -0.64276       -2.56308       -0.13711
H          0.04880       -3.32513       -0.50042
H         -1.50603       -2.52576       -0.80583
H         -1.00163       -2.86320        0.85107
N          3.59299       -0.00085        0.00950
H          3.97904       -0.82671       -0.46776
H          3.97725        0.83506       -0.45176
H          3.95323       -0.00946        0.97470
