21
id_1170_ca.log	Energy: -380791.3114274
C         -2.86469       -2.04215       -0.00037
H         -3.93685       -2.23184       -0.00150
H         -2.41197       -2.47591        0.89620
H         -2.41014       -2.47543       -0.89627
O         -2.72394       -0.62262        0.00000
C         -1.47228       -0.12051        0.00044
C         -1.37553        1.27786       -0.00538
H         -2.28070        1.87691       -0.01048
C         -0.12473        1.86242       -0.00877
C          1.05352        1.13181       -0.00491
H          2.02760        1.60544       -0.00987
C          0.90806       -0.24424        0.00120
C         -0.31539       -0.90090        0.00376
H         -0.34725       -1.98231        0.00536
N          2.12797       -1.06166        0.00044
O          2.00594       -2.27401        0.00471
O          3.20202       -0.48527       -0.00414
N         -0.03330        3.32587        0.00727
H         -0.85652        3.76117       -0.43116
H          0.80019        3.65645       -0.49755
H          0.02701        3.68543        0.97083
