7
id_1990_cb.log	Energy: -150155.7857312
C          0.80180       -0.15062        1.01089
H          0.77021        0.64841        1.74928
H          0.78195       -1.13245        1.47900
C          1.97072        0.00661        0.04207
O          2.47374       -1.05152       -0.42442
O          2.34581        1.18148       -0.22137
I         -1.07064        0.00582       -0.08264
