23
id_1592_ca.log	Energy: -358277.9194618
C         -2.84298       -0.82297        1.27718
H         -2.19162       -1.69782        1.36799
H         -3.88465       -1.15471        1.25058
H         -2.69945       -0.18786        2.15378
C         -2.50742       -0.02630        0.02752
C         -1.08507        0.48456       -0.00166
C         -0.84016        1.85915       -0.01859
H         -1.67980        2.54805       -0.03220
C          0.46284        2.35427       -0.01533
H          0.63728        3.42424       -0.02503
C          1.54259        1.48068       -0.00691
H          2.56414        1.83985       -0.01111
C          1.27514        0.11711        0.00603
C         -0.01061       -0.40347        0.01703
H         -0.15867       -1.47877        0.03814
N          2.40250       -0.81827        0.01090
O          2.16061       -2.01448        0.01796
O          3.53243       -0.35811        0.00620
N         -2.75237       -0.90071       -1.17601
H         -2.17645       -1.75193       -1.14693
H         -2.54217       -0.40356       -2.04970
H         -3.19366        0.81373       -0.08759
H         -3.73625       -1.19593       -1.20713
