16
id_1941_ca.log	Energy: -404309.3691961
C          1.48188        1.84736        0.00097
H          1.80623        2.88315        0.00356
C          0.11694        1.54997       -0.00552
H         -0.62146        2.34405       -0.00770
C         -0.27120        0.21453       -0.01046
C          0.66348       -0.82192       -0.00730
H          0.34779       -1.86278       -0.00980
C          2.01808       -0.50309       -0.00041
C          2.43109        0.83253        0.00325
H          3.49347        1.05732        0.00737
O          2.99368       -1.46333        0.00157
H          2.59554       -2.35100       -0.00097
C         -1.72332       -0.16073       -0.00147
F         -2.03313       -1.01823       -0.99687
F         -2.53902        0.89777       -0.13462
F         -2.08037       -0.78132        1.14489
