20
id_1347_cb.log	Energy: -182652.7662120
C         -1.90759       -0.03707       -0.79337
H         -2.58653        0.82110       -0.82032
H         -2.50657       -0.95085       -0.85308
H         -1.27792        0.01212       -1.68693
C         -1.09208       -0.01637        0.49660
C         -0.23770        1.25527        0.61922
H         -0.86509        2.14122        0.46375
H          0.15181        1.31178        1.64504
C          0.94385        1.24594       -0.35397
H          0.58004        1.30112       -1.38819
H          1.57113        2.12954       -0.19345
C          1.75968       -0.03485       -0.17197
H          2.22177       -0.03190        0.82540
H          2.57173       -0.09116       -0.90600
C          0.85900       -1.26368       -0.29123
H          1.43228       -2.17610       -0.10018
H          0.47891       -1.34100       -1.31661
N         -0.28910       -1.25114        0.62811
H          0.10349       -1.23426        1.57126
H         -1.80229       -0.02913        1.33092
