42
id_1852_ca.log	Energy: -532953.7498458
C          2.83043       -0.78678        1.97995
H          3.39390       -1.71751        2.10584
H          1.85486       -0.91371        2.46002
H          3.36403        0.01397        2.50397
C          2.67017       -0.44956        0.50178
C          1.97183       -1.60051       -0.26793
H          2.12772       -1.47658       -1.34907
H          2.45117       -2.54544        0.01364
C          0.46567       -1.65447       -0.00551
H          0.26196       -1.86238        1.05412
H          0.05228       -2.48846       -0.58053
C         -0.19838       -0.32793       -0.39904
C         -1.71711       -0.32767       -0.25151
C         -2.46743       -1.46556       -0.58671
H         -1.96185       -2.35885       -0.94182
C         -3.85425       -1.49729       -0.48939
H         -4.41664       -2.38836       -0.75308
C         -4.52577       -0.35840       -0.04761
C         -3.81039        0.78782        0.27747
H         -4.34629        1.67597        0.60982
C         -2.41375        0.81663        0.17824
C         -1.70000        2.09960        0.55489
H         -2.26890        2.95380        0.17094
H         -1.70492        2.19236        1.64994
C         -0.25781        2.13556        0.06091
H          0.27289        2.98044        0.51679
H         -0.23491        2.28619       -1.02763
C          0.43387        0.81867        0.40352
C          1.95294        0.89182        0.23236
C          2.46387        1.33087       -1.15626
H          1.92198        0.81186       -1.95445
H          2.33993        2.40524       -1.31528
C          3.93821        0.90876       -1.15284
H          4.57490        1.70060       -0.73484
H          4.35290        0.63470       -2.12709
C          4.01151       -0.25338       -0.18362
O          5.00417       -0.93770        0.01747
O         -5.89879       -0.41494        0.04140
H         -6.23876        0.43603        0.36579
H          0.02680       -0.15706       -1.46451
H          0.23862        0.60863        1.46925
H          2.33361        1.62060        0.96503
