22
id_1213_cb.log	Energy: -324079.8998290
C         -0.63051        1.23808        0.47679
H         -0.16156        2.16943        0.78528
C         -2.00320        1.20506        0.25518
H         -2.61607        2.09154        0.38397
C         -2.60739        0.00798       -0.12868
C         -1.83878       -1.14489       -0.29277
H         -2.32106       -2.07309       -0.58873
C         -0.46571       -1.09314       -0.07521
H          0.13021       -1.99204       -0.20278
C          0.15524        0.09519        0.31522
C          1.65150        0.16253        0.49431
C          2.36347        0.36845       -0.84438
H          2.04804        1.32486       -1.28140
H          2.05170       -0.43218       -1.52331
N          3.80769        0.25015       -0.62657
H          4.15098        1.12159       -0.22451
H          4.27623        0.14922       -1.52392
O          2.12974       -1.04077        1.07829
H          3.06629       -1.07512        0.79754
O         -3.96342        0.01466       -0.32883
H         -4.24991       -0.87856       -0.58217
H          1.89303        1.01664        1.14748
