29
id_1011_cb.log	Energy: -290576.4775999
C         -0.83314        2.53593        0.35791
H          0.16835        2.58224       -0.08104
H         -0.72795        2.34358        1.43026
H         -1.29387        3.52057        0.23164
C         -1.70449        1.46783       -0.29018
H         -1.87037        1.70694       -1.35681
H         -2.68701        1.49057        0.18902
N         -1.15826        0.11237       -0.15241
C         -2.20713       -0.88826       -0.37956
H         -2.76931       -0.65277       -1.30238
H         -1.72226       -1.85380       -0.54934
C         -3.16515       -1.04149        0.79419
H         -3.72237       -0.12415        1.00455
H         -2.61795       -1.32363        1.69916
H         -3.89451       -1.82777        0.57721
C         -0.06942       -0.07572       -1.11533
H         -0.46349       -0.10762       -2.14834
H          0.57981        0.80468       -1.06506
C          0.78481       -1.31931       -0.86455
H          0.24813       -2.23004       -1.14898
H          1.65431       -1.25823       -1.53125
C          1.25685       -1.46043        0.58176
H          1.95316       -2.30080        0.66144
H          0.40643       -1.67688        1.23489
C          1.93080       -0.19272        1.12971
H          2.33340       -0.36531        2.13177
H          1.20794        0.62739        1.19691
C          3.02784        0.25473        0.27009
N          3.88564        0.59644       -0.43014
