18
id_1771_ca.log	Energy: -493720.5971994
C         -1.97578        1.92856       -0.00000
H         -1.44393        2.88124        0.00000
H         -2.62229        1.89655        0.88447
H         -2.62229        1.89655       -0.88448
C         -1.00032        0.78493       -0.00000
C          0.37742        1.00028        0.00000
H          0.75994        2.01567        0.00000
C          1.25339       -0.08024        0.00000
C          0.80360       -1.39438       -0.00000
H          1.50244       -2.22280       -0.00000
C         -0.56844       -1.62376       -0.00000
H         -0.95769       -2.63740       -0.00000
C         -1.43219       -0.54177        0.00000
N         -2.87775       -0.79755        0.00000
H         -3.33714       -0.39133       -0.82829
H         -3.07801       -1.80606       -0.00000
Cl         2.97261        0.22942        0.00000
H         -3.33714       -0.39134        0.82830
