29
id_1816_cb.log	Energy: -647005.5683354
C         -4.63760        2.33201       -0.15386
H         -4.04025        2.87156        0.58886
H         -5.68283        2.62778       -0.06509
H         -4.27385        2.57036       -1.15900
O         -4.60457        0.93214        0.08321
C         -3.38307        0.32109        0.02669
C         -2.18600        0.97934       -0.25040
H         -2.16356        2.04530       -0.44476
C         -0.99028        0.25838       -0.28563
H         -0.06706        0.78394       -0.50987
C         -0.97725       -1.11053       -0.03607
C         -2.18452       -1.76343        0.24579
H         -2.19310       -2.83084        0.45004
C         -3.37582       -1.05668        0.27181
H         -4.31450       -1.55590        0.49075
S          0.50227       -2.11428       -0.08750
C          1.79977       -0.90051       -0.02067
C          2.49866       -0.54885       -1.17866
H          2.23458       -1.00752       -2.12704
C          3.52583        0.38450       -1.12988
H          4.06546        0.65077       -2.03464
C          3.87336        1.00010        0.08270
C          3.16308        0.64920        1.24387
H          3.42302        1.12076        2.18770
C          2.14575       -0.29136        1.19089
H          1.60763       -0.55266        2.09775
N          4.93482        1.88962        0.14692
H          4.88685        2.54372        0.92034
H          5.14279        2.35715       -0.72854
