27
id_1762_cb.log	Energy: -349976.4112586
C         -3.32717       -1.37064        0.43807
H         -4.01905       -2.18228        0.64089
C         -3.41394       -0.65677       -0.75630
H         -4.17328       -0.91177       -1.48953
C         -2.51964        0.37937       -1.01614
H         -2.58271        0.92941       -1.95250
C         -1.53457        0.72245       -0.08661
C         -1.45132       -0.00050        1.10535
H         -0.68168        0.24545        1.83285
C         -2.34184       -1.04033        1.36678
H         -2.26391       -1.59482        2.29725
C         -0.60285        1.88752       -0.37539
H         -1.07827        2.81749       -0.04904
H         -0.46854        1.97957       -1.45807
N          0.69902        1.83684        0.26861
H          0.66166        2.09830        1.24873
C          1.52804        0.73367        0.05272
C          1.41303       -0.07497       -1.08824
H          0.62684        0.10960       -1.81317
C          2.30492       -1.12538       -1.29603
H          2.19760       -1.73729       -2.18711
C          3.31639       -1.40175       -0.37987
H          4.00392       -2.22432       -0.54683
C          3.42524       -0.60588        0.76194
H          4.20188       -0.80679        1.49429
C          2.54509        0.44612        0.97896
H          2.63417        1.06205        1.87057
