20
id_140_cb.log	Energy: -1843156.3315477
C         -2.09324       -2.52111       -0.01174
H         -2.72077       -2.62609        0.88219
H         -1.40737       -3.37043       -0.04253
H         -2.75913       -2.58475       -0.88043
C         -1.33556       -1.22141       -0.00205
C          0.05774       -1.20790       -0.00072
H          0.60152       -2.14758       -0.00163
C          0.74173        0.00000        0.00135
C          0.05774        1.20790       -0.00072
H          0.60152        2.14758       -0.00163
C         -1.33556        1.22141       -0.00205
C         -2.03726       -0.00000       -0.00015
N         -3.43042        0.00000       -0.06822
H         -3.86523        0.83320        0.31322
H         -3.86523       -0.83320        0.31321
C         -2.09324        2.52111       -0.01174
H         -2.72077        2.62609        0.88219
H         -2.75914        2.58475       -0.88043
H         -1.40738        3.37043       -0.04254
Br         2.64403        0.00000        0.00294
