15
id_1105_cb.log	Energy: -238263.6000056
C          0.64713        1.82698        0.00460
H          0.88351        2.88609        0.01308
C         -0.68301        1.41775        0.00362
H         -1.49791        2.13234        0.00970
C         -0.94628        0.04433       -0.00198
C          0.07852       -0.90449       -0.00789
H         -0.15838       -1.96415       -0.01018
C          1.41265       -0.48145       -0.00987
C          1.68021        0.89772       -0.00179
H          2.71422        1.23135        0.00020
N          2.44752       -1.40429       -0.08112
H          2.21211       -2.31983        0.28675
H          3.32519       -1.06747        0.30016
C         -2.31063       -0.40966        0.00196
N         -3.41186       -0.77362        0.00517
