32
id_1125_cb.log	Energy: -328324.2238060
C         -0.61285        2.43530       -0.84915
H         -0.52840        2.21231       -1.91713
H          0.39503        2.56952       -0.44335
H         -1.14875        3.38284       -0.73648
C         -1.37554        1.33739       -0.11449
H         -2.39101        1.33357       -0.52057
C         -1.46044        1.66228        1.37890
H         -2.00667        0.89387        1.93604
H         -1.98304        2.61405        1.52046
H         -0.46137        1.76078        1.81716
N         -0.82085       -0.00615       -0.42375
C          0.59061       -0.09783       -0.15579
C          1.10872       -0.36679        1.11818
H          0.43414       -0.52275        1.95504
C          2.48497       -0.44497        1.32301
H          2.86735       -0.65710        2.31715
C          3.36786       -0.24799        0.26279
H          4.43961       -0.30759        0.42497
C          2.86228        0.01836       -1.00812
H          3.53905        0.16561       -1.84452
C          1.48604        0.08384       -1.21442
H          1.08801        0.27574       -2.20648
C         -1.58977       -1.13335        0.15031
H         -1.47490       -1.17840        1.24536
C         -1.07608       -2.44739       -0.43522
H         -1.63089       -3.28766       -0.00736
H         -0.01417       -2.60435       -0.22757
H         -1.21868       -2.45594       -1.52175
C         -3.08125       -0.99957       -0.14768
H         -3.55131       -0.17760        0.39851
H         -3.58821       -1.92320        0.14705
H         -3.24705       -0.84645       -1.22013
