18
id_1171_ca.log	Energy: -205330.4574444
C          2.64403        0.00000       -0.71638
H          2.38476        0.89672       -1.27719
H          2.38476       -0.89671       -1.27719
H          3.69848        0.00000       -0.44549
N          1.83797       -0.00000        0.54651
H          2.09391       -0.82359        1.10586
C          0.38910       -0.00000        0.30472
C         -0.26342        1.21737        0.17450
H          0.28607        2.14812        0.28336
C         -1.63044        1.20928       -0.09045
H         -2.16151        2.14981       -0.19050
C         -2.31107        0.00000       -0.22246
H         -3.37666        0.00000       -0.42696
C         -1.63044       -1.20928       -0.09045
H         -2.16151       -2.14981       -0.19051
C         -0.26343       -1.21737        0.17450
H          0.28607       -2.14812        0.28335
H          2.09391        0.82358        1.10587
