20
id_1970_cb.log	Energy: -370189.2123840
C          1.77285       -2.52994       -0.00001
H          2.42351       -2.59834       -0.87980
H          1.09904       -3.39099       -0.00001
H          2.42352       -2.59834        0.87978
C          0.99641       -1.24434       -0.00000
C         -0.37569       -1.22656       -0.00001
H         -0.93102       -2.15946       -0.00001
C         -1.07581        0.00001       -0.00000
C         -0.37568        1.22658        0.00000
H         -0.93101        2.15947        0.00001
C          0.99642        1.24435        0.00001
C          1.74068       -0.00001        0.00000
O          3.01311       -0.00001        0.00001
C          1.77288        2.52993        0.00001
H          1.09909        3.39100        0.00002
H          2.42354        2.59833       -0.87978
H          2.42354        2.59832        0.87980
N         -2.47502        0.00000       -0.00000
O         -3.09514        1.08062        0.00000
O         -3.09514       -1.08061       -0.00001
