26
id_1014_ca.log	Energy: -208345.4540595
C         -3.52000       -0.52065       -0.08913
H         -4.43910        0.06068       -0.20608
H         -3.55710       -1.01712        0.88645
H         -3.51074       -1.29801       -0.86030
C         -2.28619        0.36954       -0.19803
H         -2.34137        1.16377        0.55434
H         -2.26561        0.86118       -1.17872
C         -0.99892       -0.43375       -0.00799
H         -1.01015       -1.29165       -0.69338
H         -0.96986       -0.83010        1.01429
C          0.24896        0.39990       -0.28472
C          0.41653        1.57366        0.66619
H         -0.36216        2.30785        0.44794
H          1.38076        2.07443        0.54488
H          0.30554        1.25957        1.70841
N          1.47269       -0.50786       -0.25997
C          1.91198       -0.90010        1.10998
H          2.34406       -0.02758        1.59892
H          2.66482       -1.68116        1.00706
H          1.05896       -1.27500        1.67382
C          2.61665        0.06005       -1.02921
H          2.28783        0.25406       -2.04960
H          3.42671       -0.66924       -1.02290
H          2.94125        0.98187       -0.54760
H          0.21139        0.75962       -1.31742
H          1.19196       -1.37004       -0.74283
