19
id_1456_ca.log	Energy: -297047.8552796
C         -2.82049        0.81118        0.11718
H         -2.61996        1.72301       -0.44287
H         -2.84029        1.05140        1.18837
H         -3.79750        0.42720       -0.17725
N         -1.81891       -0.20704       -0.18522
C         -2.21455       -1.59271        0.03355
H         -3.29058       -1.67394       -0.11889
H         -1.97420       -1.92907        1.05106
H         -1.72173       -2.25398       -0.68300
C         -0.50111        0.11186       -0.08775
C          0.50393       -0.87378       -0.03995
H          0.30152       -1.93620       -0.04009
C          1.80780       -0.41537        0.00922
N          2.15085        0.87711        0.02812
C          1.11733        1.72165       -0.00000
H          1.36802        2.77887        0.02550
N         -0.17290        1.43007       -0.05133
O          2.80579       -1.32637        0.04747
H          3.65769       -0.85424        0.08299
