18
id_1914_ca.log	Energy: -439450.1096776
C          0.04425        2.36791       -0.05619
H          0.03824        3.45120       -0.08231
C         -1.15330        1.65439       -0.03759
H         -2.09408        2.19269       -0.04955
C         -1.17874        0.25988       -0.01389
C          0.03430       -0.46944        0.00180
C          1.23513        0.27958       -0.00656
C          1.23996        1.67617       -0.03907
H          2.18967        2.19804       -0.04909
N          2.52333       -0.37948        0.02135
O          2.56190       -1.61372        0.04901
O          3.53486        0.29959        0.01777
O         -0.01299       -1.80083        0.03464
H          0.90161       -2.15648        0.05122
C         -2.48972       -0.44418       -0.01726
O         -2.66118       -1.63358       -0.20544
O         -3.51562        0.39182        0.20697
H         -4.34590       -0.12114        0.16911
