34
id_1015_cb.log	Energy: -282026.0517900
C          2.35386       -1.22490        1.05130
H          1.34156       -1.04963        1.43285
H          3.06436       -0.82860        1.78771
H          2.50254       -2.30817        0.98970
C          2.57477       -0.56925       -0.31172
H          1.79796       -0.93317       -0.99893
C          3.93142       -0.97427       -0.88583
H          4.73931       -0.65918       -0.21399
H          4.10551       -0.50820       -1.86176
H          4.00201       -2.05996       -1.01019
C          2.47880        0.96090       -0.23565
H          2.57803        1.37311       -1.24792
H          3.33343        1.33404        0.34569
C          1.20259        1.49808        0.40151
H          1.21898        2.59400        0.37032
H          1.17596        1.22255        1.47024
N          0.00000        1.04758       -0.29991
H          0.00000        0.02669       -0.26335
C         -1.20259        1.49808        0.40151
H         -1.17596        1.22255        1.47024
H         -1.21898        2.59400        0.37032
C         -2.47880        0.96090       -0.23565
H         -3.33343        1.33404        0.34569
H         -2.57803        1.37311       -1.24792
C         -2.57477       -0.56925       -0.31172
H         -1.79796       -0.93317       -0.99893
C         -3.93142       -0.97427       -0.88583
H         -4.10551       -0.50820       -1.86176
H         -4.73931       -0.65917       -0.21400
H         -4.00201       -2.05996       -1.01020
C         -2.35386       -1.22490        1.05130
H         -3.06436       -0.82860        1.78771
H         -1.34156       -1.04963        1.43285
H         -2.50254       -2.30817        0.98970
