19
id_1775_ca.log	Energy: -743562.3659976
C         -2.89780       -1.80279        0.00215
H         -3.98765       -1.73752        0.00415
H         -2.57234       -2.33356        0.89874
H         -2.57560       -2.33147       -0.89686
S         -2.31954       -0.08800        0.00313
C         -0.56426       -0.28781        0.00081
C          0.07387       -1.53386       -0.00337
H         -0.50758       -2.44756       -0.00602
C          1.46005       -1.63190       -0.00787
H          1.94181       -2.60446       -0.01382
C          2.21497       -0.47196       -0.00883
C          1.63045        0.78416       -0.00490
H          2.23369        1.68645       -0.00792
C          0.24537        0.85918       -0.00047
Cl        -0.48880        2.43992       -0.00083
N          3.67854       -0.57140        0.01023
H          4.11991        0.23853       -0.44567
H          4.00262       -1.41672       -0.47813
H          4.04181       -0.61481        0.97283
