15
id_1092_ca.log	Energy: -469057.6777733
C         -2.37474        0.06024        0.00000
H         -3.44168        0.25207        0.00000
C         -1.89289       -1.24561       -0.00000
H         -2.58317       -2.08222       -0.00000
C         -0.52292       -1.49502       -0.00000
H         -0.13883       -2.50900       -0.00000
C          0.36309       -0.42570       -0.00000
C         -0.12298        0.87845        0.00000
C         -1.48574        1.13076        0.00000
H         -1.84069        2.15639        0.00000
N          0.81607        2.00184       -0.00000
H          0.31012        2.89891        0.00002
H          1.42673        1.99849       -0.83026
Cl         2.07914       -0.71440        0.00000
H          1.42675        1.99846        0.83023
