28
id_1697_ca.log	Energy: -256144.1766844
C          3.54504       -0.77192       -0.50669
H          4.02269        0.16357       -0.21303
H          3.75876       -0.94724       -1.56645
H          4.00768       -1.59334        0.05051
C          2.06455       -0.77060       -0.28790
H          1.55017       -1.67622       -0.59402
C          1.37071        0.23983        0.22944
C          1.89937        1.56201        0.70600
H          1.89601        2.31182       -0.09206
H          2.92340        1.45639        1.06610
H          1.29286        1.94939        1.53138
N         -0.10769        0.14319        0.34923
C         -0.78977        1.03739       -0.66538
H         -0.56715        0.59206       -1.63887
H         -0.31898        2.01857       -0.59826
C         -2.28247        1.11011       -0.38627
H         -2.73270        1.74417       -1.15526
H         -2.43901        1.60619        0.57972
C         -2.91691       -0.27898       -0.37028
H         -3.97504       -0.20808       -0.10420
H         -2.85655       -0.71939       -1.37317
C         -2.18026       -1.17832        0.62084
H         -2.56778       -2.20039        0.59141
H         -2.31470       -0.80612        1.64419
C         -0.69490       -1.24110        0.30099
H         -0.53163       -1.61932       -0.71042
H         -0.13936       -1.84846        1.01643
H         -0.34705        0.52359        1.27688
