22
id_1592_cb.log	Energy: -357987.1964226
C         -3.18409       -0.13030        1.11121
H         -2.62712       -0.72791        1.84238
H         -4.21291       -0.49879        1.07057
H         -3.19493        0.90755        1.45520
C         -2.52813       -0.24761       -0.26327
C         -1.12432        0.34142       -0.21010
C         -0.95551        1.73154       -0.24461
H         -1.83366        2.36544       -0.34299
C          0.30602        2.31379       -0.16223
H          0.41208        3.39264       -0.19641
C          1.43867        1.51498       -0.04229
H          2.43220        1.94089        0.01910
C          1.25396        0.13974       -0.01001
C          0.00389       -0.46450       -0.09193
H         -0.07450       -1.54527       -0.06986
N          2.43360       -0.71857        0.10802
O          2.27133       -1.92892        0.13103
O          3.53167       -0.18847        0.17882
N         -2.61391       -1.63516       -0.71366
H         -2.17395       -2.23056       -0.01097
H         -2.05122       -1.74670       -1.55703
H         -3.10087        0.36364       -0.96985
