29
id_172_cb.log	Energy: -386980.4158838
C         -3.56556       -0.84717       -0.93744
H         -4.63873       -0.92772       -0.72755
H         -3.16355       -1.86146       -1.03087
H         -3.44240       -0.34006       -1.90149
C         -2.86880       -0.06220        0.18636
C         -3.06383       -0.80752        1.51707
H         -4.13280       -0.89037        1.74675
H         -2.57734       -0.27030        2.33944
H         -2.64791       -1.81977        1.47656
C         -3.53646        1.31116        0.29986
H         -3.45207        1.88148       -0.63229
H         -3.10196        1.90830        1.10960
H         -4.60212        1.17765        0.51616
C         -1.37279        0.04529       -0.11940
C         -0.60720       -1.12341       -0.27038
H         -1.08191       -2.09656       -0.16877
C          0.75372       -1.06994       -0.55321
H          1.31689       -1.99436       -0.66760
C          1.41213        0.15881       -0.69487
C          0.65985        1.32305       -0.54424
H          1.14536        2.29081       -0.65114
C         -0.70893        1.26785       -0.26265
H         -1.25123        2.20237       -0.15892
C          2.89962        0.20579       -0.95472
H          3.17649        1.19130       -1.34215
H          3.18221       -0.55526       -1.68678
C          3.67072       -0.03744        0.35195
O          4.26499       -1.14328        0.49109
O          3.63955        0.88308        1.21754
