18
id_1845_cb.log	Energy: -439013.1997201
C         -2.03449       -1.20851       -0.08438
H         -2.56417       -2.14845        0.04160
C         -0.68251       -1.21070       -0.40326
H         -0.13939       -2.14160       -0.53048
C         -0.02290       -0.00004       -0.56106
C         -0.68247        1.21064       -0.40329
H         -0.13933        2.14153       -0.53053
C         -2.03444        1.20850       -0.08440
H         -2.56409        2.14847        0.04156
C         -2.72981        0.00001        0.07903
N         -4.09790        0.00003        0.33385
H         -4.42525        0.83613        0.80604
H         -4.42527       -0.83603        0.80609
O          1.33886       -0.00007       -0.92735
C          2.20622       -0.00000        0.10814
F          2.06599        1.07498        0.89042
F          2.06577       -1.07468        0.89078
F          3.43649       -0.00021       -0.38754
