19
id_1020_cb.log	Energy: -1772188.5920827
C         -1.48509        0.13097        0.29437
H         -1.54910        0.30257        1.37759
H         -1.64527        1.10250       -0.19060
C         -2.57801       -0.84852       -0.12898
H         -2.37999       -1.82851        0.32490
H         -2.53898       -0.99001       -1.21818
C         -3.98283       -0.39538        0.26545
H         -4.03507       -0.28537        1.35461
H         -4.70024       -1.17687       -0.00492
N         -4.43925        0.86286       -0.33518
H         -4.31424        0.78646       -1.34536
H         -3.79768        1.60212       -0.05000
C         -0.08750       -0.37957       -0.05948
H         -0.01681       -0.55548       -1.13897
H          0.09778       -1.33767        0.43911
C          0.96919        0.62136        0.35949
H          0.97694        0.78878        1.43626
H          0.86609        1.57354       -0.16037
Br         2.77419       -0.02272       -0.08180
