19
id_1528_cb.log	Energy: -333723.7200717
C         -2.84532        1.31371        0.00001
H         -3.84981        0.88347        0.00001
H         -2.74079        1.95540       -0.88207
H         -2.74078        1.95539        0.88210
C         -1.80502        0.23472        0.00001
C         -2.15044       -1.09686        0.00000
H         -3.19268       -1.40248        0.00000
N         -1.26074       -2.12119       -0.00000
N          0.01631       -1.86267       -0.00001
C          0.46652       -0.58648       -0.00000
C         -0.41724        0.53661        0.00000
C          0.09756        1.85203        0.00001
H         -0.57293        2.70473        0.00001
C          1.47230        2.02057        0.00000
H          1.88184        3.02872        0.00000
C          2.36333        0.93859       -0.00000
H          3.43548        1.11891       -0.00001
C          1.92385       -0.40250       -0.00001
O          2.73217       -1.40243       -0.00001
