17
id_118_cb.log	Energy: -181278.4308628
C         -1.62814       -0.77526       -0.43017
H         -1.57994       -1.80903       -0.06930
H         -1.71900       -0.79653       -1.52208
H         -2.53183       -0.31090       -0.02067
C         -0.39043        0.00448        0.00510
C         -0.47867        1.45287       -0.46463
H         -0.58962        1.49626       -1.55265
H          0.42139        2.00724       -0.18363
H         -1.34516        1.94827       -0.01245
C          0.86288       -0.66327       -0.56843
H          0.86276       -0.60230       -1.66162
H          0.86142       -1.72806       -0.28542
O          2.03948       -0.02658       -0.09516
H          1.82379        0.18936        0.83313
N         -0.20224        0.00914        1.46916
H         -0.36153       -0.93925        1.81329
H         -0.93625        0.58072        1.88731
