33
id_1152_ca.log	Energy: -328619.8231905
C         -2.64062       -0.75946        1.61552
H         -2.28352       -0.16621        2.46059
H         -2.80478       -1.78109        1.97076
H         -3.60901       -0.36075        1.29450
C         -1.63480       -0.78931        0.46016
H         -0.67294       -1.10799        0.88110
C         -2.08694       -1.82244       -0.57566
H         -2.05743       -2.81971       -0.12730
H         -1.45724       -1.85214       -1.47226
H         -3.11670       -1.63047       -0.89452
C         -1.41685        0.62024       -0.12879
C         -1.08844        1.65019        0.94436
H         -0.73728        2.58318        0.49106
H         -0.33098        1.28350        1.64344
H         -1.99769        1.87575        1.50595
C         -2.57119        1.10044       -1.00173
H         -2.71017        0.46178       -1.87893
H         -2.38801        2.12531       -1.34034
H         -3.49592        1.09501       -0.41965
N         -0.20484        0.57188       -1.09697
H         -0.43521       -0.07065       -1.86698
C          1.11028        0.21736       -0.55077
C          1.92988        1.22789       -0.06307
H          1.60419        2.26323       -0.09821
C          3.17560        0.88701        0.45681
H          3.82559        1.66682        0.83905
C          3.58642       -0.44434        0.47749
H          4.55920       -0.70425        0.88185
C          2.75534       -1.44149       -0.02917
H          3.07717       -2.47729       -0.02479
C          1.50683       -1.11451       -0.55161
H          0.85488       -1.88163       -0.96003
H         -0.14327        1.50497       -1.52781
