28
id_1010_cb.log	Energy: -232710.7907400
C         -5.00044       -0.38860        0.06867
H         -5.08275       -0.95242       -0.86692
H         -5.90093        0.22447        0.17157
H         -4.98951       -1.11077        0.89233
C         -3.73652        0.46537        0.07878
H         -3.68683        1.04110        1.01168
H         -3.77878        1.19813       -0.73715
C         -2.46813       -0.37221       -0.06442
H         -2.51132       -0.95069       -0.99608
H         -2.41855       -1.10022        0.75780
C         -1.20509        0.47539       -0.05703
H         -1.18554        1.09121        0.86015
H         -1.22958        1.17811       -0.89980
N          0.00000       -0.34318       -0.18575
H          0.00000       -0.99501        0.60104
C          1.20509        0.47539       -0.05703
H          1.22958        1.17811       -0.89980
H          1.18554        1.09121        0.86015
C          2.46813       -0.37221       -0.06442
H          2.41855       -1.10022        0.75780
H          2.51132       -0.95069       -0.99608
C          3.73652        0.46537        0.07878
H          3.77878        1.19813       -0.73715
H          3.68683        1.04110        1.01168
C          5.00044       -0.38860        0.06867
H          5.08275       -0.95242       -0.86692
H          4.98951       -1.11077        0.89233
H          5.90093        0.22447        0.17157
