19
id_1843_ca.log	Energy: -439292.2949988
C          1.49569        1.82320        0.00172
H          1.57524        2.90444        0.00300
C          2.65061        1.04879       -0.00629
H          3.63572        1.50295       -0.01139
C          2.50640       -0.32980       -0.01074
C          1.27309       -0.95505       -0.00753
H          1.17724       -2.03586       -0.01355
C          0.13981       -0.15023       -0.00008
C          0.23100        1.23814        0.00541
H         -0.64896        1.86875        0.00954
O         -1.05385       -0.86632       -0.00090
C         -2.23708       -0.20420        0.00024
F         -2.38446        0.56621        1.07933
F         -3.19653       -1.11439       -0.00327
F         -2.38284        0.57312       -1.07403
N          3.70831       -1.17139        0.00795
H          3.55396       -2.06372       -0.47972
H          4.50460       -0.70192       -0.44366
H          3.99212       -1.39410        0.97270
