24
id_1680_ca.log	Energy: -207594.4387955
C         -1.72040       -0.24439        1.09821
H         -2.38700        0.55198        1.42908
H         -0.83389       -0.27722        1.72902
H         -2.23598       -1.20474        1.12280
N         -1.32765        0.03731       -0.31067
C         -0.71526        1.40066       -0.50140
H         -0.59059        1.51281       -1.58115
H         -1.46966        2.11323       -0.16097
C          0.60114        1.62355        0.22090
H          0.89090        2.64731       -0.03922
H          0.44381        1.61536        1.30612
C          1.73916        0.66308       -0.13998
H          1.81380        0.55666       -1.23011
H          2.67662        1.12043        0.19218
C          1.61345       -0.70514        0.53505
H          1.38330       -0.53444        1.59385
H          2.58660       -1.20514        0.51731
C          0.57458       -1.66972       -0.07103
H          0.12358       -2.27456        0.72174
H          1.07846       -2.37665       -0.73867
C         -0.52626       -1.07698       -0.93922
H         -1.24915       -1.85650       -1.18783
H         -0.13186       -0.66711       -1.87081
H         -2.20384        0.07104       -0.84398
