20
id_1953_ca.log	Energy: -393683.1891065
C         -1.42366       -0.97314        0.51519
H         -1.66240       -1.99063        0.80779
C         -0.11612       -0.51108        0.62443
H          0.64520       -1.18145        1.00811
C          0.17692        0.80096        0.24184
C         -0.82697        1.64688       -0.24679
H         -0.56768        2.66042       -0.53546
C         -2.12627        1.18449       -0.35455
H         -2.91000        1.83329       -0.73221
C         -2.42804       -0.13249        0.02709
C         -3.77242       -0.61847       -0.08542
N         -4.86143       -1.01050       -0.17757
O          1.42335        1.35493        0.30423
C          2.49164        0.56341        0.77989
H          3.33488        1.24576        0.91554
H          2.26435        0.09960        1.74449
C          2.94166       -0.51001       -0.19092
O          3.71915       -1.38634        0.13021
O          2.43767       -0.37063       -1.41428
H          2.78384       -1.08051       -1.99116
