26
id_1830_cb.log	Energy: -453610.5245291
C          4.66151       -0.47627        0.04043
H          5.72114       -0.71008        0.06870
C          3.75784       -1.37927       -0.51739
H          4.11168       -2.31794       -0.93273
C          2.39980       -1.07791       -0.55780
H          1.70780       -1.77748       -1.01813
C          1.91783        0.12915       -0.03352
C          2.83537        1.02913        0.52525
H          2.48153        1.96185        0.95544
C          4.19439        0.72948        0.56017
H          4.88850        1.43744        1.00272
C          0.47009        0.44730       -0.06501
C          0.01333        1.78058       -0.21799
H          0.73655        2.58223       -0.33668
C         -1.32115        2.09080       -0.24552
H         -1.64392        3.11938       -0.37459
C         -2.32992        1.09634       -0.12056
C         -1.85927       -0.23296        0.03085
C         -0.48748       -0.53779        0.05837
H         -0.20244       -1.57352        0.19930
N         -2.76797       -1.33049        0.18011
O         -2.32012       -2.46521        0.31820
O         -3.98168       -1.11336        0.16417
N         -3.61921        1.47748       -0.17487
H         -4.36315        0.81963       -0.00174
H         -3.82713        2.46671       -0.20151
