23
id_1167_cb.log	Energy: -347994.0113455
C          2.38306        2.42191        0.03469
H          2.13985        3.48413        0.03645
H          3.03503        2.21980       -0.82203
H          2.93967        2.19096        0.95093
N          1.14602        1.67727       -0.05047
H          0.26837        2.17193        0.02124
C          1.09340        0.32147       -0.02018
C          2.29269       -0.43341       -0.01182
H          3.24454        0.08445       -0.01798
C          2.26870       -1.81469        0.00218
H          3.21075       -2.35556        0.00763
C          1.05889       -2.52075        0.01044
H          1.04781       -3.60474        0.02173
C         -0.12329       -1.80460        0.00620
H         -1.07103       -2.33063        0.01561
C         -0.13810       -0.39964       -0.00809
C         -1.42558        0.31302       -0.00273
O         -1.56349        1.53091        0.00140
O         -2.48949       -0.50484       -0.00133
C         -3.76793        0.14001        0.00762
H         -3.88623        0.76165       -0.88201
H         -3.87762        0.75397        0.90366
H         -4.50042       -0.66525        0.00767
