22
id_1838_ca.log	Energy: -728846.4044298
C         -2.37042        1.91061        0.19440
H         -2.64873        2.93176        0.42938
C         -3.22707        0.86752        0.52979
H         -4.17545        1.05810        1.02281
C         -2.84987       -0.43000        0.21430
C         -1.65583       -0.72621       -0.42107
H         -1.39518       -1.75158       -0.66477
C         -0.80541        0.33272       -0.74416
C         -1.15878        1.64817       -0.44062
H         -0.48616        2.46044       -0.69674
S          0.73124        0.00085       -1.59303
C          1.70641       -0.57074       -0.17230
C          1.94698        0.47164        0.91815
H          1.02973        0.78927        1.41572
F          2.57350        1.53279        0.36451
F          2.78794       -0.08679        1.82093
F          1.13923       -1.64457        0.42026
F          2.90525       -0.95047       -0.66369
N         -3.75022       -1.53359        0.57484
H         -3.55790       -2.37573        0.01617
H         -4.73602       -1.27861        0.42675
H         -3.64782       -1.79295        1.56631
