20
id_1100_ca.log	Energy: -621983.8514918
C          2.88820       -2.23964       -0.05419
H          2.52132       -2.71410       -0.96195
H          2.55956       -2.76820        0.83828
H          3.97390       -2.16931       -0.07408
N          2.38063       -0.83468       -0.00110
H          2.77731       -0.31352       -0.79607
C          0.92272       -0.64701        0.00649
C          0.08643       -1.75106        0.00944
H          0.49072       -2.75498        0.00922
C         -1.29723       -1.59292        0.01107
H         -1.93807       -2.46727        0.01545
C         -1.84167       -0.31695        0.00551
C         -1.02801        0.80726       -0.00050
H         -1.44036        1.80858       -0.00371
C          0.34689        0.63165        0.00168
N          1.15775        1.85213        0.00442
O          0.59015        2.91826       -0.11511
O          2.36831        1.73477        0.13119
Cl        -3.56600       -0.11448        0.00684
H          2.77742       -0.36940        0.82776
