32
id_1250_ca.log	Energy: -398823.1220768
N         -0.10704        1.76755        1.51955
H         -0.93470        2.29696        1.79131
C         -0.15699        0.78294        0.68019
C         -1.43759        0.32680        0.13990
C         -2.63521        0.50987        0.84859
H         -2.63157        0.95330        1.83985
C         -3.83171        0.07284        0.29880
H         -4.75619        0.19961        0.85159
C         -3.84218       -0.53839       -0.95618
H         -4.78113       -0.87821       -1.38143
C         -2.65404       -0.72534       -1.66103
H         -2.66556       -1.20235       -2.63496
C         -1.44913       -0.30484       -1.11232
H         -0.51926       -0.44793       -1.65406
C          1.11854        0.14981        0.26863
C          1.33061       -1.20511        0.58516
C          2.54159       -1.78173        0.20419
H          2.73226       -2.82014        0.45903
C          3.49399       -1.04527       -0.49353
H          4.42680       -1.51389       -0.79158
C          3.25533        0.28665       -0.81457
H          3.99450        0.85495       -1.37146
C          2.06937        0.91515       -0.43205
C          1.83116        2.35803       -0.80401
H          0.80544        2.52718       -1.14609
H          2.51062        2.64951       -1.60770
H          2.01510        3.02697        0.04353
C          0.30680       -2.02534        1.32914
H         -0.47449       -2.38722        0.65152
H          0.78510       -2.89615        1.78301
H         -0.18306       -1.45246        2.12226
H          0.78215        2.06051        1.92285
