42
id_1615_ca.log	Energy: -519478.5072623
C          7.65251        0.29329       -0.56273
H          8.39202        0.41850       -1.35886
H          7.87548       -0.64231       -0.03905
H          7.78116        1.11487        0.14984
C          6.23442        0.27738       -1.12289
H          6.13014       -0.53619       -1.85072
H          6.03612        1.21134       -1.66230
C          5.19065        0.10264       -0.02149
H          5.27903        0.91933        0.70606
H          5.37140       -0.83684        0.51573
C          3.78716        0.09096       -0.59834
H          3.64278       -0.73582       -1.29718
H          3.54693        1.02978       -1.10275
N          2.76899       -0.08373        0.48301
H          2.88264        0.66563        1.17805
C          1.35963       -0.08968       -0.00737
H          1.15086        0.88929       -0.44066
H          1.28954       -0.86269       -0.77665
C          0.41917       -0.40464        1.14515
C         -1.01192       -0.41483        0.64898
C         -1.61917       -1.59028        0.23886
H         -1.08263       -2.53064        0.30713
C         -2.92951       -1.57421       -0.25503
H         -3.39522       -2.50223       -0.56540
C         -3.62494       -0.37760       -0.34584
C         -3.00546        0.82536        0.06704
C         -1.71106        0.79888        0.56211
H         -1.22893        1.71430        0.89052
O         -3.77119        1.94610       -0.05865
C         -3.18085        3.17446        0.34327
H         -2.91808        3.15421        1.40613
H         -3.93522        3.94092        0.16756
H         -2.28788        3.39397       -0.25145
O         -4.90047       -0.24516       -0.80902
C         -5.55145       -1.43337       -1.23715
H         -5.01060       -1.90026       -2.06696
H         -6.54250       -1.12786       -1.57184
H         -5.64607       -2.14815       -0.41296
O          0.84944       -1.65893        1.64527
H          0.34082       -1.85301        2.44947
H          0.53120        0.37173        1.91524
H          2.93684       -0.96795        0.98178
