29
id_1211_cb.log	Energy: -420583.6705384
C          3.24771        2.00470        1.14701
H          4.28038        1.67680        0.99144
H          2.95845        1.73124        2.16801
H          3.23093        3.09580        1.07344
C          2.30341        1.37290        0.12861
H          2.62246        1.63338       -0.89059
H          1.29508        1.78219        0.25890
C          2.24302       -0.14899        0.24518
C          1.30182       -0.78038       -0.79753
C         -0.13369       -0.34985       -0.62273
C         -0.71476        0.58023       -1.48044
H         -0.13959        0.97774       -2.31218
C         -2.02896        1.00821       -1.28194
H         -2.49254        1.73224       -1.94458
C         -2.76966        0.50077       -0.22528
C         -2.19123       -0.44042        0.64025
C         -0.88551       -0.86007        0.44272
H         -0.45566       -1.59516        1.11913
O         -3.00145       -0.88690        1.65297
H         -2.50428       -1.49668        2.22322
O         -4.06118        0.91605       -0.03263
H         -4.41272        0.46001        0.75159
O          1.38841       -2.19460       -0.68589
H          2.32394       -2.34189       -0.43573
N          3.54309       -0.82122        0.09655
H          4.11420       -0.63355        0.91831
H          4.03595       -0.39172       -0.68893
H          1.85670       -0.42058        1.23681
H          1.64599       -0.46026       -1.79539
