25
id_1237_cb.log	Energy: -348733.6576439
C          3.62555        1.10237       -0.37510
H          3.79809        1.96937       -1.01784
H          4.59943        0.66569       -0.13222
H          3.17924        1.46311        0.56212
N          2.82555        0.11398       -1.09598
H          1.91922        0.53980       -1.29465
C          2.57654       -1.08416       -0.29575
H          2.06225       -1.81520       -0.92995
H          3.54732       -1.51611       -0.02763
C          1.74481       -0.88710        0.98552
H          1.65588       -1.85900        1.48368
H          2.26965       -0.21720        1.67474
C          0.37477       -0.33685        0.67900
C          0.11762        1.03393        0.72635
H          0.89819        1.71771        1.04958
C         -1.13715        1.54090        0.37823
H         -1.34104        2.60763        0.42000
C         -2.14336        0.67732       -0.02599
C         -1.89752       -0.70227       -0.08047
C         -0.64995       -1.19841        0.26516
H         -0.48488       -2.27182        0.21387
O         -2.88888       -1.56347       -0.47390
H         -3.68476       -1.03914       -0.67010
O         -3.40925        1.06935       -0.38637
H         -3.48026        2.03581       -0.31926
