25
id_199_cb.log	Energy: -278395.4016051
C          2.42572       -0.26256        1.05983
H          2.39622       -1.26503        1.49639
H          2.47969        0.46356        1.87651
H          3.34768       -0.17526        0.45977
N          1.22205       -0.03209        0.27044
C          1.22101        1.32318       -0.27466
H          1.42460        2.00828        0.55707
H          2.03052        1.46233       -1.01437
C         -0.11547        1.70086       -0.90425
H         -0.07950        2.75919       -1.18133
H         -0.26948        1.14718       -1.83664
C         -1.29720        1.47593        0.04078
H         -2.21705        1.82618       -0.44913
H         -1.17809        2.04936        0.96594
C         -1.55878        0.03528        0.41912
O         -1.89702       -0.26639        1.55681
C         -1.49474       -1.03243       -0.65647
H         -2.36673       -1.67776       -0.51139
H         -1.56001       -0.58662       -1.65385
C         -0.21798       -1.88013       -0.54283
H         -0.26676       -2.69237       -1.27610
H         -0.18579       -2.33839        0.45311
C          1.05569       -1.07040       -0.76208
H          1.03796       -0.61689       -1.76214
H          1.91909       -1.74635       -0.74806
