23
id_182_ca.log	Energy: -584250.1833007
C         -0.97066        2.27518       -0.08988
H         -1.10406        3.34408       -0.21543
C         -2.06554        1.46303        0.19326
H         -3.05555        1.89990        0.29225
C         -1.90830        0.08436        0.35590
C         -0.64218       -0.48573        0.23322
H         -0.50676       -1.55729        0.35222
C          0.44048        0.34130       -0.04908
C          0.29827        1.71706       -0.21191
H          1.15987        2.33744       -0.43611
S          2.06371       -0.37623       -0.14968
O          1.90800       -1.78303       -0.50953
O          2.88603        0.49972       -0.97951
N          2.73890       -0.35682        1.35494
H          2.21372       -0.93188        2.01552
H          2.85955        0.59343        1.70874
C         -3.10150       -0.78818        0.62830
H         -3.87484       -0.25549        1.18102
H         -2.82713       -1.69669        1.16352
N         -3.72571       -1.22700       -0.66480
H         -3.05463       -1.75804       -1.23313
H         -4.03542       -0.41875       -1.21767
H         -4.54209       -1.82585       -0.49362
