76
id_15_cb.log	Energy: -1068232.8910201
C          5.96028        5.66902       -1.06863
H          5.35163        6.05382       -1.89049
H          7.01152        5.87854       -1.28907
H          5.70076        6.22809       -0.16321
C          5.73457        4.19399       -0.86930
C          4.73492        3.51269       -1.56507
H          4.11829        4.05042       -2.27980
C          4.52642        2.14750       -1.37887
H          3.77171        1.62421       -1.95813
C          5.31349        1.45345       -0.46224
C          6.32010        2.11387        0.24397
H          6.92980        1.56000        0.94987
C          6.52781        3.46960        0.02976
H          7.31538        3.98090        0.57715
N          5.11973        0.05996       -0.25493
C          3.95561       -0.61088       -0.01517
C          4.27956       -1.94218        0.14217
H          3.60556       -2.75591        0.35136
C          5.68845       -1.98383       -0.00648
N          6.19119       -0.78008       -0.23524
C          6.55881       -3.21692        0.07074
C          6.12932       -4.19624       -1.03131
H          5.07879       -4.48378       -0.91682
H          6.25600       -3.74777       -2.02258
H          6.73879       -5.10562       -0.98450
C          8.03489       -2.86072       -0.11163
H          8.21479       -2.39730       -1.08655
H          8.64057       -3.77083       -0.04729
H          8.37506       -2.16677        0.66335
C          6.35913       -3.88058        1.44101
H          5.31238       -4.16324        1.59515
H          6.65404       -3.20314        2.24965
H          6.97030       -4.78728        1.51133
N          2.75741        0.08155        0.08548
H          2.80669        1.09298        0.15858
C          1.52137       -0.52800        0.05580
O          1.38413       -1.74182       -0.07343
N          0.48483        0.35386        0.17996
H          0.70460        1.32419        0.37444
C         -0.87859       -0.02613        0.19840
C         -1.38453       -0.89669       -0.73266
H         -0.72792       -1.30782       -1.49100
C         -2.74829       -1.27127       -0.72880
H         -3.09905       -1.97212       -1.47629
C         -3.60494       -0.73219        0.20031
C         -3.12285        0.19792        1.17647
C         -1.74139        0.53871        1.19164
C         -1.27719        1.43235        2.19276
H         -0.22248        1.68199        2.24129
C         -2.14264        1.97337        3.11203
H         -1.76747        2.65192        3.87160
C         -3.51753        1.64978        3.07823
H         -4.19336        2.08878        3.80510
C         -3.99602        0.77663        2.13249
H         -5.04903        0.51746        2.10631
O         -4.93047       -1.01607        0.28403
C         -5.50630       -1.81627       -0.74813
H         -5.28656       -1.37397       -1.72737
H         -5.06517       -2.81896       -0.70992
C         -7.00143       -1.90723       -0.51645
H         -7.17587       -2.05565        0.56492
H         -7.36180       -2.80617       -1.02676
N         -7.76824       -0.77445       -1.03114
C         -9.19204       -1.03725       -0.80495
H         -9.39487       -1.20067        0.26932
H         -9.48028       -1.94598       -1.34320
C        -10.03509        0.12740       -1.28873
H         -9.90640        0.26097       -2.37292
H        -11.09177       -0.05274       -1.07774
O         -9.67635        1.32593       -0.61494
C         -8.30091        1.60875       -0.83009
H         -8.12517        1.78518       -1.90164
H         -8.07493        2.52543       -0.28037
C         -7.41791        0.47284       -0.34418
H         -6.37464        0.72754       -0.54676
H         -7.53534        0.36412        0.75037
