40
id_114_cb.log	Energy: -896286.5915522
C          4.00648        1.33803        1.01959
H          4.29093        1.45921        2.06921
H          3.24673        2.09195        0.78679
H          4.88624        1.53299        0.39490
C          3.50480       -0.08485        0.76529
C          2.95634       -0.19020       -0.69724
N          1.59631        0.31251       -0.62913
C          0.82222        0.03377        0.58207
S          2.03947       -0.45070        1.85485
C          0.28840        1.49768        0.52603
C          1.14163        1.60100       -0.74627
O          1.40027        2.48121       -1.54680
N         -1.11373        1.77740        0.47218
H         -1.53650        2.28577        1.24059
C         -1.89743        1.34836       -0.54110
O         -1.43116        0.71493       -1.49509
C         -3.37733        1.65673       -0.43315
H         -3.55709        2.42481        0.32362
H         -3.69646        2.03936       -1.40683
C         -4.13184        0.38927       -0.09169
C         -4.57660       -0.46852       -1.10241
H         -4.40899       -0.20125       -2.14309
C         -5.23557       -1.65588       -0.78263
H         -5.57973       -2.31234       -1.57681
C         -5.45598       -1.99707        0.55249
H         -5.97169       -2.92000        0.80173
C         -5.01561       -1.14476        1.56605
H         -5.18709       -1.40153        2.60759
C         -4.35650        0.04173        1.24429
H         -4.01481        0.70705        2.03444
C          3.01942       -1.62238       -1.26038
O          2.03763       -2.37941       -1.05116
O          4.07870       -1.92682       -1.87217
C          4.60879       -1.09027        1.08035
H          4.27729       -2.12268        0.93734
H          4.93664       -0.97312        2.11843
H          5.47130       -0.90377        0.43140
H          3.54028        0.47124       -1.34344
H          0.06111       -0.74026        0.46969
H          0.74143        2.10916        1.30961
