27
id_1233_cb.log	Energy: -433281.1645245
C         -3.60702       -1.39618        0.42548
H         -4.50985       -1.93869        0.69123
C         -2.56106       -1.27930        1.34434
H         -2.64952       -1.72973        2.32915
C         -1.40010       -0.58887        1.00194
H         -0.59073       -0.50659        1.72409
C         -1.26565        0.00330       -0.26002
C         -2.31746       -0.12046       -1.17232
H         -2.22332        0.33049       -2.15789
C         -3.48160       -0.81474       -0.83512
H         -4.28648       -0.90254       -1.55971
C         -0.01978        0.77644       -0.64817
H         -0.04581        0.92135       -1.73436
C          1.25154        0.00232       -0.32673
C          1.96715        0.20963        0.85714
H          1.63934        0.97039        1.56323
C          3.10276       -0.54904        1.14485
H          3.64679       -0.37315        2.06871
C          3.53959       -1.52604        0.25023
H          4.42505       -2.11445        0.47292
C          2.83355       -1.73877       -0.93498
H          3.16816       -2.49351       -1.64126
C          1.69915       -0.97912       -1.21821
H          1.15051       -1.14671       -2.14294
C          0.04915        2.20088       -0.03960
O         -0.70629        2.49772        0.92186
O          0.89811        2.97513       -0.56511
