17
id_1891_ca.log	Energy: -264717.7731220
C          0.28016       -2.19123       -0.00003
H         -0.67593       -2.71531       -0.00032
H          0.84003       -2.51783        0.88525
H          0.84050       -2.51774       -0.88503
C          0.08255       -0.69832       -0.00001
C         -1.18789       -0.10790        0.00001
C         -1.35817        1.27746       -0.00000
H         -2.36173        1.69385        0.00000
C         -0.23528        2.10153       -0.00001
H         -0.36157        3.18015       -0.00002
C          1.04433        1.55538       -0.00000
H          1.93154        2.18071        0.00000
C          1.18397        0.16761        0.00000
O          2.46813       -0.32431        0.00000
H          2.46089       -1.29581        0.00016
O         -2.27335       -0.95198        0.00002
H         -3.09006       -0.42488        0.00002
