30
id_1498_ca.log	Energy: -408278.1959193
C         -3.38593        1.11985        0.92848
H         -3.63668        1.93710        0.25240
H         -2.43307        1.30740        1.42385
H         -4.17387        0.98121        1.66811
N         -3.26968       -0.13755        0.13746
C         -2.91811       -1.28918        1.01488
H         -3.68591       -1.37296        1.78385
H         -1.94813       -1.09059        1.47168
H         -2.88275       -2.19253        0.40806
C         -2.34194        0.00189       -1.05075
H         -2.40684       -0.94428       -1.59078
H         -2.77050        0.79759       -1.66311
C         -0.92907        0.32578       -0.66597
C         -0.50815        1.67825       -0.53651
H         -1.24432        2.45914       -0.70859
C          0.78068        2.01086       -0.21287
H          1.08578        3.04811       -0.11837
C          1.73971        0.98409       -0.00795
C          3.09713        1.22506        0.32559
H          3.44290        2.24845        0.44094
C          3.94488        0.16168        0.49472
H          4.98869        0.30497        0.75024
C          3.44369       -1.15223        0.33066
H          4.10883       -2.00167        0.46196
N          2.19367       -1.42103        0.02168
C          1.34942       -0.36751       -0.14539
C         -0.00341       -0.68035       -0.48157
O         -0.34940       -1.98093       -0.61635
H          0.46563       -2.50245       -0.46244
H         -4.19588       -0.33112       -0.26084
