21
id_1846_ca.log	Energy: -736272.0576797
C         -2.23082        1.87542       -0.35383
H         -2.55109        2.87521       -0.62238
C         -3.14023        0.82243       -0.39698
H         -4.17006        0.99035       -0.69786
C         -2.72033       -0.45354       -0.04511
C         -1.42322       -0.72576        0.35170
H         -1.11238       -1.72815        0.63151
C         -0.54299        0.35213        0.38589
C         -0.91560        1.64844        0.03778
H         -0.19869        2.46189        0.08172
S          1.13109        0.04700        0.85830
O          1.73262        1.26839        1.38097
O          1.22264       -1.21097        1.59086
C          1.95247       -0.25868       -0.76989
F          1.81629        0.81180       -1.53464
F          3.23342       -0.49894       -0.55076
F          1.38843       -1.30377       -1.35242
N         -3.67875       -1.56014       -0.11519
H         -3.47541       -2.28486        0.58719
H         -4.64258       -1.23541        0.04198
H         -3.65696       -2.01390       -1.04024
