15
id_1469_cb.log	Energy: -383185.9629614
C         -1.00270        1.20951       -0.23904
H         -0.95034        1.21266       -1.34015
H         -1.59886        2.07374        0.06946
C          0.40242        1.36650        0.32040
H          0.36965        1.40797        1.41346
H          0.86118        2.28700       -0.04878
S          1.49741        0.00000       -0.19248
C          0.40243       -1.36650        0.32040
H          0.86118       -2.28700       -0.04877
H          0.36965       -1.40796        1.41347
C         -1.00270       -1.20951       -0.23904
H         -1.59886       -2.07374        0.06945
H         -0.95034       -1.21266       -1.34015
N         -1.64467       -0.00000        0.28135
H         -2.60577       -0.00000       -0.05415
