31
id_1108_ca.log	Energy: -327871.8859622
C          3.89037        0.46517       -0.49136
H          4.85257        0.82440       -0.84127
C          3.27813       -0.61277       -1.12953
H          3.76078       -1.09513       -1.97273
C          2.04432       -1.07993       -0.68561
H          1.55439       -1.92086       -1.16799
C          1.44973       -0.45005        0.39922
C          2.03895        0.62343        1.05135
H          1.54351        1.09011        1.89810
C          3.27330        1.08094        0.59557
H          3.75022        1.91799        1.09402
N          0.13795       -0.92668        0.85034
H         -0.02712       -0.61809        1.81903
C         -1.04054       -0.47670        0.00278
H         -0.80820       -0.81511       -1.01243
C         -1.16833        1.03942        0.04687
H         -0.26839        1.51225       -0.35806
H         -1.27121        1.35303        1.09529
C         -2.40271        1.47619       -0.74891
H         -2.25354        1.22289       -1.80664
H         -2.50194        2.56417       -0.68984
C         -3.66935        0.78857       -0.23805
H         -3.86211        1.10634        0.79531
H         -4.53270        1.09529       -0.83728
C         -3.51410       -0.73212       -0.27630
H         -3.40222       -1.06109       -1.31758
H         -4.40603       -1.22370        0.12356
C         -2.28833       -1.17770        0.52477
H         -2.15579       -2.26364        0.46456
H         -2.42279       -0.91314        1.58252
H          0.13631       -1.95575        0.87422
