27
id_1830_ca.log	Energy: -453883.0668049
C          4.69246        0.46248       -0.03486
H          5.75223        0.69539       -0.06350
C          3.79217        1.36766        0.52429
H          4.14802        2.30522        0.93953
C          2.43326        1.07095        0.56000
H          1.74180        1.77342        1.01601
C          1.95677       -0.13709        0.03620
C          2.86791       -1.04165       -0.52297
H          2.51104       -1.97265       -0.95378
C          4.22641       -0.74232       -0.55801
H          4.92053       -1.44897       -1.00180
C          0.50810       -0.45415        0.06764
C          0.05545       -1.76795        0.22511
H          0.76780       -2.57580        0.35456
C         -1.30325       -2.06641        0.24080
H         -1.63897       -3.09117        0.36534
C         -2.23879       -1.05606        0.10799
C         -1.79603        0.26196       -0.03935
C         -0.44343        0.56132       -0.06476
H         -0.14436        1.59333       -0.20554
N         -2.73685        1.37286       -0.18074
O         -2.29241        2.48668       -0.37438
O         -3.93117        1.12218       -0.09232
N         -3.65301       -1.42357        0.12774
H         -4.14361       -1.10987       -0.72145
H         -3.75523       -2.44439        0.20119
H         -4.14780       -0.99284        0.92163
