33
id_1061_ca.log	Energy: -281574.0492566
C          3.09033       -1.23000        0.71034
H          2.80878       -1.95122        1.48156
H          3.36520       -1.78426       -0.19387
H          3.96061       -0.67613        1.06901
C          1.90182       -0.32372        0.43939
C          0.64095       -1.12100        0.11763
H          0.87193       -1.81915       -0.69897
H          0.42985       -1.73122        1.00478
C         -0.61644       -0.31804       -0.23596
H         -0.45471        0.21966       -1.18460
C         -1.78576       -1.28459       -0.46448
H         -1.52493       -1.99779       -1.25571
H         -1.93726       -1.86825        0.45554
C         -3.08015       -0.54814       -0.81065
H         -3.89604       -1.26633       -0.94756
H         -2.95226       -0.02253       -1.76705
C         -3.43659        0.46701        0.27611
H         -4.35001        1.00957        0.00847
H         -3.64322       -0.06779        1.21358
C         -2.28395        1.44613        0.50085
H         -2.53207        2.15375        1.29946
H         -2.13272        2.03677       -0.41335
C         -0.98319        0.71307        0.83906
H         -0.17587        1.44528        0.96642
H         -1.09365        0.18992        1.80073
N          2.21525        0.58886       -0.72272
H          1.40400        1.19562       -0.88975
C          3.41936        1.44864       -0.55040
H          3.43785        2.17225       -1.36387
H          3.34066        1.95731        0.41022
H          4.30934        0.82425       -0.58428
H          1.73504        0.34841        1.28533
H          2.32443        0.01379       -1.56848
