51
id_130_ca.log	Energy: -593944.8858301
C          1.10238       -3.16694       -2.26342
H          1.16601       -4.24310       -2.08632
H          2.10859       -2.79099       -2.47108
H          0.48844       -2.99971       -3.15149
C          0.50787       -2.46880       -1.04832
H          1.09009       -2.67548       -0.14400
H         -0.50372       -2.84928       -0.84983
C          0.40268       -0.97032       -1.24636
O          0.47146       -0.48475       -2.36091
C          0.34431       -0.06595        0.00902
C         -0.50448       -0.64105        1.18245
H         -0.12627       -0.16215        2.09211
H         -0.32753       -1.71454        1.30964
C         -2.00902       -0.35527        1.21933
C         -2.57644       -0.66414        2.59795
H         -2.14810        0.05075        3.30421
H         -2.30874       -1.67174        2.92784
H         -3.66345       -0.55400        2.62944
N         -2.77817       -1.11575        0.14462
C         -4.05507       -0.43094       -0.21220
H         -4.70044       -0.41432        0.66563
H         -4.52935       -0.99269       -1.01668
H         -3.82273        0.58290       -0.53924
C         -3.02458       -2.55109        0.47397
H         -3.79869       -2.60324        1.23895
H         -2.10256       -3.00794        0.83315
H         -3.36191       -3.04704       -0.43578
C          1.84584       -0.05274        0.38744
C          2.73431        0.63006       -0.45463
H          2.34796        1.15170       -1.32636
C          4.09802        0.65148       -0.18738
H          4.76665        1.19292       -0.84935
C          4.60367       -0.02288        0.92419
H          5.66835       -0.00867        1.13509
C          3.73302       -0.71830        1.75612
H          4.11411       -1.25338        2.62037
C          2.36295       -0.73822        1.48887
H          1.71288       -1.29780        2.15251
C         -0.14975        1.35101       -0.29102
C          0.26693        2.40326        0.53217
H          1.01260        2.21959        1.30097
C         -0.26241        3.68294        0.38520
H          0.07921        4.48234        1.03559
C         -1.22573        3.93483       -0.58913
H         -1.63798        4.93202       -0.70733
C         -1.65819        2.89366       -1.40655
H         -2.41387        3.07270       -2.16538
C         -1.12705        1.61308       -1.25822
H         -1.48982        0.81702       -1.90097
H         -2.19060        0.69586        0.98618
H         -2.20911       -1.10550       -0.70990
