17
id_1118_ca.log	Energy: -680632.2712311
C         -0.03479        2.54993       -0.20432
H         -0.03017        3.63062       -0.28958
C          1.16136        1.84331       -0.15774
H          2.10656        2.37342       -0.20512
C          1.17547        0.44813       -0.06017
C         -0.03245       -0.25952       -0.00470
C         -1.21927        0.47572       -0.04695
C         -1.23844        1.86236       -0.13595
H         -2.19094        2.38114       -0.16416
N         -2.52789       -0.18572       -0.00439
O         -2.70324       -1.17009       -0.69955
O         -3.38283        0.31663        0.70679
Cl        -0.05486       -1.97056        0.25046
C          2.50079       -0.24688       -0.06014
O          2.72935       -1.30052       -0.61544
O          3.42906        0.45227        0.59876
H          4.28770       -0.01020        0.52706
