42
id_1759_cb.log	Energy: -507224.3706638
C          0.92629        3.56723        1.63657
H          0.48979        4.56531        1.74257
H          1.99395        3.64004        1.85732
H          0.46033        2.91896        2.39594
N          0.73130        3.09399        0.26840
H          1.21348        2.19663        0.18960
C         -0.68711        2.83008        0.02473
H         -1.09237        2.10074        0.74807
H         -1.23544        3.76523        0.18681
C         -0.95220        2.33930       -1.39367
H         -0.73702        3.13816       -2.11231
H         -2.01782        2.10562       -1.48473
C         -0.09269        1.13331       -1.78627
H          0.93868        1.47001       -1.91877
H         -0.41416        0.74092       -2.76154
N         -0.04804        0.10947       -0.74031
C         -1.25463       -0.52087       -0.34181
C         -2.33960       -0.52586       -1.23826
H         -2.22155       -0.07702       -2.21777
C         -3.55913       -1.10562       -0.91436
H         -4.36908       -1.08483       -1.63726
C         -3.72677       -1.71797        0.32382
H         -4.67070       -2.17910        0.59604
C         -2.65961       -1.72097        1.21283
H         -2.78012       -2.18540        2.18936
C         -1.42381       -1.12972        0.92352
C         -0.39130       -1.20337        2.03661
H         -0.89572       -0.93019        2.97038
H         -0.07802       -2.24871        2.15693
C          0.86419       -0.34562        1.87902
H          1.45651       -0.41519        2.79616
H          0.57631        0.70481        1.74474
C          1.68559       -0.79785        0.70761
C          1.18806       -0.57730       -0.58493
C          1.93411       -0.97599       -1.69843
H          1.54530       -0.79402       -2.69631
C          3.16400       -1.60720       -1.53012
H          3.73410       -1.91396       -2.40171
C          3.65209       -1.85303       -0.24844
H          4.60812       -2.34875       -0.11191
C          2.90954       -1.45025        0.85969
H          3.29048       -1.62327        1.86321
