22
id_1271_ca.log	Energy: -337184.9887347
C         -1.34729        2.38205        0.12616
H         -0.68352        2.57767        0.97494
H         -2.24103        2.99953        0.24428
H         -0.82561        2.71246       -0.77919
C         -1.72613        0.92471        0.04364
C         -3.07282        0.55307        0.10347
H         -3.82746        1.32912        0.20484
C         -3.46225       -0.78348        0.03606
H         -4.51623       -1.04263        0.08086
C         -2.49741       -1.78319       -0.09620
H         -2.79092       -2.82651       -0.16210
C         -1.15323       -1.43381       -0.15381
H         -0.40520       -2.21184       -0.27871
C         -0.75067       -0.09040       -0.07820
C          0.67056        0.27261       -0.13518
H          0.90358        1.30453       -0.39132
C          1.70428       -0.54950        0.10949
H          1.58600       -1.58679        0.40649
C          3.08260       -0.04853       -0.00298
O          3.41341        1.08364       -0.32244
O          3.99023       -0.99625        0.29488
H          4.88549       -0.61584        0.20573
