33
id_1284_cb.log	Energy: -526827.9835308
C          4.16106        2.21157       -0.46294
H          4.85478        3.02005       -0.67319
C          2.79151        2.41133       -0.64505
H          2.42921        3.37252       -0.99674
C          1.88470        1.38128       -0.38554
H          0.81954        1.53613       -0.53829
C          2.37458        0.15675        0.05421
C          3.74547       -0.04973        0.22930
C          4.64750        0.97801       -0.02465
H          5.71535        0.82115        0.10260
C          4.00921       -1.46438        0.69360
H          4.89448       -1.90821        0.23068
H          4.16067       -1.48417        1.77999
C          2.70598       -2.19239        0.31621
H          2.48957       -3.05893        0.94398
H          2.76681       -2.52636       -0.72688
C          1.61545       -1.11023        0.41584
N          0.46605       -1.41967       -0.41052
H          0.64757       -1.92893       -1.26870
C         -0.77706       -0.90623       -0.25048
C         -1.10809       -0.03562        0.81810
H         -0.34703        0.28504        1.51985
C         -2.39696        0.43370        0.96223
H         -2.64667        1.10123        1.77830
C         -3.38005        0.05479        0.04553
C         -3.07789       -0.79271       -1.02738
H         -3.85101       -1.07266       -1.73275
C         -1.79520       -1.26457       -1.17220
H         -1.54738       -1.92492       -1.99745
N         -4.71558        0.54850        0.19907
O         -4.96986        1.29210        1.14455
O         -5.56939        0.21308       -0.61930
H          1.27357       -1.04457        1.45604
