23
id_1312_ca.log	Energy: -405328.5658807
C         -1.81147        2.29324       -0.01741
H         -2.52112        3.11251       -0.02162
C         -0.46230        2.53068       -0.05050
H         -0.07888        3.54620       -0.07903
C          0.47119        1.46085       -0.03988
C          1.86443        1.73832       -0.03872
H          2.18601        2.77444       -0.06517
C          2.78439        0.72761        0.00468
H          3.85131        0.92683        0.00979
C          2.31022       -0.59710        0.05557
C          0.98692       -0.93139        0.04173
H          0.69079       -1.97125        0.08819
C          0.01882        0.10816       -0.01789
C         -1.39565       -0.07683       -0.00285
C         -2.28558        0.96709        0.01417
H         -3.34941        0.76159        0.02885
N         -1.98504       -1.41483       -0.02955
O         -1.38069       -2.30815       -0.60374
O         -3.07272       -1.57259        0.50111
N          3.30814       -1.67068        0.13161
H          2.86647       -2.59754        0.18760
H          3.92320       -1.66941       -0.69442
H          3.91139       -1.56259        0.95902
