29
id_1340_cb.log	Energy: -256619.8547812
C         -4.50471        0.47052       -0.18276
H         -4.44133        1.42852        0.34465
H         -5.46084        0.00639        0.07748
H         -4.51535        0.68242       -1.25751
C         -3.32807       -0.42918        0.18133
H         -3.42809       -1.39478       -0.33017
H         -3.34666       -0.64390        1.25764
C         -1.98290        0.19730       -0.18359
H         -1.90939        1.17818        0.30108
H         -1.94079        0.37123       -1.26666
C         -0.81992       -0.69710        0.23096
H         -1.00461       -1.70815       -0.15300
H         -0.80313       -0.77863        1.33574
N          0.48985       -0.27498       -0.26932
C          1.47849       -1.29107        0.10680
H          1.50241       -1.41192        1.20816
H          1.15979       -2.25058       -0.31403
C          2.87736       -0.93694       -0.38312
H          3.57470       -1.72605       -0.08245
H          2.87534       -0.90048       -1.47965
C          3.30940        0.41745        0.17513
H          3.41223        0.33988        1.26613
H          4.28628        0.71146       -0.22279
C          2.24931        1.46600       -0.15411
H          2.21760        1.62802       -1.23884
H          2.48992        2.42697        0.31280
C          0.87194        1.01316        0.31908
H          0.12718        1.76401        0.04294
H          0.87034        0.94141        1.42547
