48
id_1431_cb.log	Energy: -626863.7500395
C          1.76022       -1.02211        2.84707
H          1.77275       -2.11350        2.75983
H          1.12418       -0.76060        3.69824
H          2.77700       -0.68289        3.06926
C          1.22356       -0.36331        1.57167
C         -0.17811       -0.90129        1.26891
H         -0.81757       -0.64521        2.12054
H         -0.16643       -1.99520        1.19518
C         -0.84520       -0.31439       -0.00320
C         -0.24938       -0.94382       -1.19981
N          0.11360       -1.48196       -2.15988
C         -0.65308        1.20567       -0.03803
C          0.20477        1.83665       -0.93758
H          0.73745        1.25335       -1.68301
C          0.39057        3.21875       -0.88131
H          1.06071        3.69714       -1.58906
C         -0.27642        3.97822        0.07527
H         -0.12894        5.05269        0.12017
C         -1.13985        3.35065        0.97391
H         -1.66872        3.93455        1.72086
C         -1.32946        1.97390        0.91516
H         -2.00748        1.48955        1.61405
C         -2.34708       -0.66468       -0.09577
C         -2.97179       -1.54443        0.78687
H         -2.41552       -2.01770        1.58803
C         -4.33170       -1.83111        0.64816
H         -4.80535       -2.51471        1.34590
C         -5.07407       -1.24966       -0.37342
H         -6.13098       -1.47415       -0.47750
C         -4.45063       -0.37639       -1.26621
H         -5.01876        0.08128       -2.07005
C         -3.09865       -0.08826       -1.12718
H         -2.61565        0.59369       -1.82347
N          2.10635       -0.46238        0.40466
C          3.21636        0.48299        0.46062
H          2.81695        1.49424        0.60056
H          3.90628        0.26651        1.29614
C          3.99694        0.43096       -0.84179
H          3.34896        0.74712       -1.67380
H          4.86644        1.09126       -0.79779
O          4.48536       -0.88024       -1.09100
C          3.40263       -1.80065       -1.16000
H          3.83725       -2.78517       -1.34940
H          2.74239       -1.53083       -1.99640
C          2.61413       -1.80593        0.13992
H          1.77906       -2.50973        0.05234
H          3.27782       -2.16107        0.94748
H          1.12314        0.71106        1.76684
