11
id_1575_ca.log	Energy: -209575.4659959
C          0.76846        0.00000        0.79606
H          1.02492       -0.89444        1.36183
H          1.02492        0.89444        1.36183
C         -0.69606        0.00000        0.44205
H         -1.34680       -0.00000        1.31587
F         -0.96441       -1.09166       -0.32785
F         -0.96441        1.09166       -0.32785
N          1.56280        0.00000       -0.46357
H          1.35668        0.83123       -1.03166
H          1.35668       -0.83123       -1.03166
H          2.56891       -0.00000       -0.25858
