17
id_1526_ca.log	Energy: -309353.8062837
C         -0.56890        1.67763        0.00001
H         -0.39939        2.75057        0.00002
C         -1.83745        1.16939        0.00001
H         -2.70151        1.82901        0.00000
C         -2.04936       -0.24130       -0.00000
C         -0.99433       -1.11751        0.00001
H         -1.15809       -2.19072        0.00001
C          0.32706       -0.60368        0.00001
C          0.55142        0.79951        0.00001
C          1.88943        1.21862       -0.00001
H          2.14550        2.27434       -0.00001
C          2.86417        0.24758       -0.00002
H          3.91973        0.49356       -0.00002
N          2.58720       -1.08014        0.00000
N          1.35662       -1.49880        0.00000
O         -3.31710       -0.74755       -0.00002
H         -3.96853       -0.02518       -0.00002
