27
id_150_ca.log	Energy: -279295.2183858
C          2.64732       -1.34899        0.23891
H          3.32360       -0.59416        0.64694
H          3.25696       -2.19593       -0.08794
H          1.98648       -1.69833        1.03364
C          1.91596       -0.84363       -0.99029
H          1.30193       -1.61869       -1.45102
H          2.64193       -0.49735       -1.72774
N          0.99404        0.34599       -0.78583
C          1.59060        1.45209        0.07847
H          2.65862        1.45919       -0.14635
H          1.15452        2.37828       -0.29921
C          1.30611        1.29830        1.55887
H          1.64432        0.34213        1.96130
H          0.24124        1.41500        1.77290
H          1.84461        2.09547        2.07839
C         -0.40147        0.03836       -0.40861
C         -1.35697        0.99772       -0.72914
H         -1.06553        1.90393       -1.25364
C         -2.68309        0.77733       -0.37355
H         -3.43412        1.51872       -0.62459
C         -3.04223       -0.39217        0.29521
H         -4.07739       -0.56344        0.57147
C         -2.07319       -1.34244        0.60191
H         -2.34766       -2.25721        1.11646
C         -0.73914       -1.13425        0.25205
H          0.00244       -1.88715        0.48866
H          0.92640        0.76369       -1.72152
