27
id_1506_ca.log	Energy: -373284.2071208
C          3.40124       -0.36678        1.31239
H          3.99892        0.00882        2.14934
H          3.95613       -1.18805        0.84274
H          2.47473       -0.78221        1.72348
C          3.11554        0.74182        0.30335
H          4.05979        1.19213       -0.02497
H          2.53756        1.53908        0.78712
C          2.36722        0.23853       -0.94329
H          2.97756       -0.53348       -1.42694
H          2.26797        1.05932       -1.66348
C          1.01352       -0.35244       -0.63182
C          0.82920       -1.71776       -0.58954
H          1.66877       -2.36971       -0.81993
C         -0.41049       -2.31389       -0.25318
H         -0.51598       -3.39445       -0.23094
C         -1.48592       -1.51899        0.04757
C         -1.35708       -0.09911        0.01580
C         -0.10728        0.48355       -0.32595
C         -0.06612        1.90403       -0.34940
H          0.85402        2.41726       -0.61232
C         -1.19317        2.62537       -0.04389
H         -1.18926        3.71016       -0.05609
C         -2.38173        1.93556        0.29045
H         -3.28146        2.49381        0.53692
N         -2.47219        0.62261        0.31960
O         -2.69292       -2.06769        0.37678
H         -3.30965       -1.32864        0.54875
