38
id_1333_cb.log	Energy: -424208.9191909
C          2.44176        1.36318        0.66170
H          1.68233        1.69600        1.37822
H          2.49820        2.08604       -0.15694
H          3.41093        1.36268        1.16964
C          2.13928       -0.05483        0.16848
C          2.31044       -0.99133        1.37305
H          2.07065       -2.03309        1.14562
H          1.69410       -0.66670        2.21775
H          3.35587       -0.96109        1.69561
C          3.15374       -0.44116       -0.91686
H          4.16782       -0.24677       -0.55338
H          3.00905        0.14216       -1.83247
H          3.08833       -1.50369       -1.17030
N          0.72032       -0.11411       -0.33086
C          0.40659       -1.41002       -0.97858
H          0.91699       -1.48186       -1.95084
H          0.80421       -2.21029       -0.34910
C         -1.08306       -1.68508       -1.21744
H         -1.50611       -0.93815       -1.89653
H         -1.12723       -2.63322       -1.76559
C         -1.99550       -1.81639        0.00753
H         -1.71884       -2.69893        0.59512
H         -3.01770       -1.97574       -0.35041
C         -1.99905       -0.63157        0.98661
C         -2.16548        0.69944        0.24557
O         -3.01096        0.79440       -0.63236
C         -1.27256        1.86955        0.59240
H         -0.70773        1.65742        1.50006
H         -1.92203        2.73001        0.78372
C         -0.32060        2.21669       -0.56763
H          0.41490        2.93181       -0.19116
H         -0.88800        2.72941       -1.35171
C          0.36027        1.00546       -1.22986
H          1.23224        1.34933       -1.80105
H         -0.33651        0.61320       -1.97223
O         -0.86540       -0.64238        1.82937
H         -0.12924       -0.38794        1.20860
H         -2.87853       -0.72169        1.63757
