18
id_1963_ca.log	Energy: -587694.9461479
C          0.83529        2.63379       -0.00000
H          0.81782        3.71824       -0.00000
C         -0.32582        1.90431        0.00000
H         -1.29112        2.40059       -0.00000
C         -0.25571        0.48714        0.00000
C         -1.37497       -0.38891        0.00000
C         -1.21306       -1.75047        0.00000
H         -2.08162       -2.40127        0.00000
C          0.08030       -2.32124       -0.00000
H          0.19930       -3.39988       -0.00000
C          1.18738       -1.51046       -0.00000
C          1.04142       -0.09054        0.00000
N          2.18619        0.64451        0.00000
C          2.07743        1.95579        0.00000
H          3.00384        2.52388        0.00000
O          2.43736       -2.04675       -0.00000
H          3.07686       -1.30670        0.00001
Cl        -2.99064        0.28301       -0.00000
