18
id_1159_cb.log	Energy: -252231.0720508
C         -2.75456       -0.65628        0.01993
H         -2.69728       -1.30660       -0.85947
H         -3.71133       -0.13424        0.02508
H         -2.66146       -1.26163        0.92804
O         -1.75652        0.35164       -0.02514
C         -0.45044       -0.06524       -0.01599
C         -0.04273       -1.39302       -0.00492
H         -0.77686       -2.19091       -0.00437
C          1.32196       -1.70419        0.00495
H          1.63172       -2.74403        0.01157
C          2.26393       -0.68446        0.00933
H          3.32441       -0.91588        0.02097
C          1.85092        0.64951        0.00343
H          2.58182        1.45412        0.01103
C          0.49762        0.98073       -0.01127
N          0.05296        2.30393       -0.08625
H         -0.85608        2.43494        0.34554
H          0.72633        2.96126        0.29376
