26
id_1579_ca.log	Energy: -301976.6440539
C          3.71233        0.98161        0.03216
H          4.26596        0.17328       -0.45262
H          4.39353        1.51051        0.70247
H          3.38096        1.67893       -0.74179
C          2.52869        0.43564        0.81459
H          1.96819        1.23397        1.31323
H          2.84793       -0.25367        1.60396
C          1.56228       -0.30966       -0.06260
O          1.68347       -0.49496       -1.25418
O          0.50794       -0.77340        0.64347
C         -0.48076       -1.51448       -0.08398
H         -0.00442       -2.17665       -0.80904
H         -1.00000       -2.11553        0.66191
C         -1.41773       -0.57842       -0.82000
H         -2.27298       -1.13087       -1.21637
H         -0.90026       -0.07009       -1.63470
N         -1.95969        0.49503        0.07422
C         -2.69267       -0.04607        1.25477
H         -3.45976       -0.73118        0.89129
H         -3.14656        0.79121        1.78344
H         -1.99108       -0.55914        1.91056
C         -2.82334        1.42786       -0.70530
H         -3.69519        0.86962       -1.04835
H         -2.25140        1.80636       -1.55208
H         -3.12452        2.24507       -0.05124
H         -1.15657        1.03096        0.42757
