28
id_1040_cb.log	Energy: -232713.5798766
C          4.97990       -0.05486        0.17876
H          5.11860       -1.00753       -0.34417
H          5.02511       -0.25706        1.25457
H          5.82365        0.59371       -0.07628
C          3.64608        0.58229       -0.19831
H          3.63186        0.80172       -1.27374
H          3.53793        1.54591        0.31612
C          2.45370       -0.30677        0.14723
H          2.46755       -0.52843        1.22374
H          2.56068       -1.27171       -0.36813
C          1.11067        0.31769       -0.22284
H          1.09851        0.54100       -1.29891
H          1.00379        1.28157        0.29427
C         -0.08062       -0.57342        0.12038
H         -0.06891       -0.79678        1.19644
H          0.02596       -1.53733       -0.39653
C         -1.42392        0.05160       -0.24911
H         -1.44054        0.26970       -1.32668
H         -1.52034        1.01727        0.26547
C         -2.61265       -0.84098        0.10090
H         -2.62014       -1.03155        1.18373
H         -2.48893       -1.81607       -0.38933
C         -3.96097       -0.25023       -0.30850
H         -4.75316       -0.97471       -0.09342
H         -3.97098       -0.08834       -1.39253
N         -4.32280        1.01698        0.33726
H         -3.60544        1.70424        0.10770
H         -4.23869        0.88361        1.34583
