29
id_1382_ca.log	Energy: -431423.4908031
C         -1.54025        2.72046       -0.15368
H         -1.26010        3.29052       -1.03991
H         -1.33812        3.31312        0.74027
H         -2.60215        2.48352       -0.18983
N         -0.75767        1.47301       -0.09690
C         -1.41363        0.26427        0.11186
C         -1.10006       -0.64395        1.11874
H         -0.29593       -0.41401        1.80668
C         -1.84174       -1.81022        1.23369
H         -1.60289       -2.51532        2.02220
C         -2.90801       -2.06514        0.36719
H         -3.50751       -2.96219        0.45006
C         -3.20198       -1.13483       -0.60185
H         -4.01126       -1.22670       -1.31447
N         -2.44938       -0.02045       -0.70645
C          0.61821        1.61820        0.02996
O          1.08851        2.73477        0.19303
C          1.49513        0.41780       -0.10511
C          2.63296        0.36374        0.70376
H          2.81544        1.15854        1.42019
C          3.51117       -0.70888        0.59353
H          4.38649       -0.75830        1.23287
C          3.26789       -1.71397       -0.34167
H          3.95665       -2.54801       -0.43217
C          2.14619       -1.64693       -1.16709
H          1.96630       -2.42008       -1.90676
C          1.25399       -0.58603       -1.04807
H          0.38896       -0.53344       -1.70294
H         -2.67389        0.63905       -1.45448
