32
id_1601_cb.log	Energy: -328331.9543756
C          3.43207        0.11725       -0.65993
H          3.04991        1.03975       -1.10942
H          3.98614       -0.42556       -1.43333
H          4.14235        0.39609        0.12897
C          2.31121       -0.74816       -0.08568
H          1.58285       -0.94390       -0.88523
C          2.86293       -2.09250        0.38629
H          3.34118       -2.63668       -0.43502
H          2.06891       -2.72600        0.79671
H          3.61365       -1.94337        1.17228
C          1.58497       -0.04983        1.07110
H          0.77141       -0.70040        1.41937
H          2.28739        0.04461        1.91112
C          1.02267        1.33641        0.75221
H          1.83766        2.03976        0.54595
H          0.49745        1.72109        1.63759
C          0.05515        1.37906       -0.43400
C         -1.09780        0.40477       -0.25322
C         -1.99442        0.55476        0.81231
H         -1.86429        1.37668        1.51369
C         -3.05147       -0.33383        0.98442
H         -3.73707       -0.20356        1.81657
C         -3.23220       -1.39045        0.09017
H         -4.05701       -2.08361        0.22415
C         -2.34908       -1.54834       -0.97433
H         -2.48320       -2.36496       -1.67758
C         -1.29024       -0.65476       -1.14210
H         -0.60459       -0.77827       -1.97763
N         -0.37249        2.77274       -0.63281
H         -0.87108        3.06605        0.20897
H         -1.07523        2.78548       -1.37199
H          0.59819        1.08120       -1.33894
