41
id_1553_ca.log	Energy: -685687.0129593
C          0.94841        2.51361        1.66438
H          2.01402        2.43022        1.42651
H          0.68764        1.76060        2.41288
H          0.76290        3.50584        2.08498
C          0.12122        2.33652        0.41117
H         -0.94573        2.38336        0.65398
C          0.46692        3.32265       -0.68448
H          1.52759        3.23856       -0.94126
H          0.27105        4.34046       -0.33557
H         -0.13296        3.13849       -1.57939
O          0.40443        0.98054       -0.08246
P         -0.75393        0.13622       -0.77004
O         -1.43636        0.74057       -1.93538
O          0.00848       -1.20047       -1.18471
C          0.59717       -2.07997       -0.20486
H          0.26681       -1.81131        0.80160
H          0.23760       -3.08547       -0.42851
C          2.10089       -2.06983       -0.36160
H          2.35893       -2.23120       -1.40990
H          2.55277       -2.85612        0.24768
N          2.73442       -0.77409        0.05236
C          4.12461       -0.68194       -0.47853
H          4.69903       -1.51225       -0.06586
H          4.54977        0.27050       -0.16430
H          4.08683       -0.74430       -1.56537
C          2.72613       -0.58416        1.53127
H          3.28554       -1.40744        1.97735
H          1.69947       -0.57536        1.89456
H          3.20697        0.36763        1.75463
O         -1.68022       -0.21735        0.46997
C         -2.95659       -0.90110        0.22804
H         -2.89457       -1.40757       -0.74128
C         -3.10674       -1.92065        1.33561
H         -4.04947       -2.46060        1.21161
H         -3.11610       -1.41983        2.30870
H         -2.28477       -2.64165        1.31306
C         -4.05279        0.14316        0.21138
H         -5.02004       -0.33953        0.04544
H         -3.88373        0.87046       -0.58728
H         -4.08270        0.66787        1.17146
H          2.18510       -0.00215       -0.35519
