18
id_1911_cb.log	Energy: -335549.1989749
C          3.23588       -1.15796        0.00001
H          3.01442       -2.22892       -0.00017
H          3.84685       -0.93734        0.88221
H          3.84704       -0.93707       -0.88199
C          1.96647       -0.34452       -0.00000
C          2.01594        1.05917        0.00000
H          2.98272        1.55871        0.00000
C          0.85821        1.82378        0.00001
H          0.90162        2.90934        0.00002
C         -0.39426        1.19892        0.00001
C         -0.47719       -0.20449       -0.00000
C          0.71256       -0.94725       -0.00001
H          0.63778       -2.03181       -0.00002
C         -1.81146       -0.90932       -0.00001
O         -2.85704       -0.17352        0.00001
O         -1.83570       -2.16340       -0.00005
O         -1.50615        1.98820        0.00002
H         -2.27627        1.34682        0.00002
