35
id_1642_ca.log	Energy: -422987.6803514
C         -3.91716       -1.31060       -1.61245
H         -4.86570       -1.85161       -1.58298
H         -3.12538       -2.01523       -1.88794
H         -3.98513       -0.53342       -2.37954
C         -3.64396       -0.71150       -0.24409
H         -4.41536        0.01689        0.01822
C         -3.50400       -1.76923        0.83651
H         -3.38552       -1.33795        1.83294
H         -2.64897       -2.42058        0.62272
H         -4.40800       -2.38317        0.84114
N         -2.36454        0.08935       -0.33767
H         -1.58574       -0.56417       -0.50594
C         -2.05872        0.95161        0.84077
H         -2.89979        1.63784        0.95136
H         -1.99575        0.32086        1.72645
C         -0.77755        1.75181        0.62162
C          0.47373        0.90445        0.44432
C          0.59360       -0.38846        0.97293
H         -0.22480       -0.84528        1.52344
C          1.76101       -1.11984        0.81076
H          1.85104       -2.12317        1.21439
C          2.84491       -0.57153        0.11794
C          2.74833        0.71736       -0.40849
H          3.57393        1.16908       -0.94551
C          1.56706        1.43735       -0.23983
H          1.50593        2.44072       -0.65048
O          3.94652       -1.36642        0.00686
C          5.06539       -0.83357       -0.68959
H          5.44492        0.06579       -0.19364
H          4.80717       -0.59935       -1.72760
H          5.82880       -1.61096       -0.66980
O         -0.95859        2.66078       -0.45649
H         -0.65294        2.23855       -1.27704
H         -0.66725        2.37391        1.51718
H         -2.41910        0.69374       -1.16904
