22
id_1745_cb.log	Energy: -456406.5560956
C         -3.19889       -0.63407        0.03833
H         -4.03060        0.05584       -0.13898
H         -3.15406       -0.85363        1.10934
H         -3.40980       -1.56090       -0.50138
C         -1.90609        0.00833       -0.43389
C         -1.57017        1.31266        0.29513
H         -1.89615        1.25065        1.34224
H         -2.09490        2.15376       -0.16364
N         -0.12713        1.54911        0.28997
C          0.52799        0.46754        0.13483
S         -0.42505       -1.03286       -0.12534
C          2.02980        0.37963        0.14757
H          2.38214        1.35523        0.49763
C          2.51637       -0.70451        1.11148
H          2.21467       -1.70076        0.76784
H          2.11932       -0.55295        2.11967
H          3.60896       -0.68884        1.16412
C          2.56485        0.13852       -1.26778
H          2.24230       -0.83744       -1.64518
H          3.65891        0.15485       -1.25774
H          2.21343        0.90965       -1.95977
H         -1.94672        0.18779       -1.51253
