18
id_1881_ca.log	Energy: -493716.6787391
C         -2.68409       -1.09281        0.00561
H         -2.63382       -1.77411        0.86192
H         -2.69968       -1.69847       -0.90779
H         -3.62733       -0.54745        0.06111
C         -1.53240       -0.12389        0.00032
C         -1.75175        1.25546       -0.00026
H         -2.77484        1.61709        0.00157
C         -0.69456        2.15856       -0.00192
H         -0.89263        3.22501       -0.00236
C          0.62137        1.70827       -0.00055
H          1.45631        2.39974        0.00216
C          0.85709        0.34079       -0.00175
C         -0.20605       -0.55821       -0.00637
N          0.08672       -1.99534       -0.00377
H          0.77489       -2.25371       -0.72551
H         -0.75610       -2.55536       -0.19044
Cl         2.49567       -0.25073        0.00304
H          0.46204       -2.31197        0.90356
