53
id_1433_ca.log	Energy: -665036.1256438
C          2.74894       -1.70576        2.58167
H          2.06215       -2.46646        2.96276
H          3.55147       -1.56972        3.31073
H          3.18965       -2.07198        1.64884
C          2.00882       -0.38081        2.36228
H          2.68249        0.37573        1.95324
H          1.62479       -0.01354        3.32011
C          0.80992       -0.58990        1.45898
O         -0.12712       -1.27246        1.83573
C          0.84562       -0.02179        0.02214
C         -0.47202       -0.37533       -0.70243
H         -0.34247       -0.20413       -1.77590
H         -0.68453       -1.43606       -0.55803
C         -1.64425        0.46247       -0.19793
H         -1.63822        0.59604        0.88665
H         -1.65670        1.44667       -0.66996
N         -2.95816       -0.18505       -0.52551
C         -4.08377        0.80631       -0.46824
H         -4.08498        1.21218        0.54632
H         -3.86828        1.59743       -1.18758
C         -5.39515        0.11364       -0.79051
H         -6.21160        0.82971       -0.68437
H         -5.37910       -0.25791       -1.82524
O         -5.64406       -0.95563        0.10507
C         -4.61956       -1.92955        0.00565
H         -4.86231       -2.73462        0.70082
H         -4.58400       -2.33772       -1.01471
C         -3.27174       -1.34206        0.38094
H         -2.48048       -2.08578        0.28910
H         -3.28654       -0.93791        1.39598
C          1.00263        1.49912        0.01520
C          1.30046        2.14821       -1.18997
H          1.50043        1.55772       -2.08073
C          1.34687        3.53627       -1.25799
H          1.58159        4.02078       -2.20075
C          1.09077        4.30331       -0.12076
H          1.12838        5.38685       -0.17299
C          0.78160        3.66963        1.07801
H          0.57162        4.25460        1.96799
C          0.73283        2.27646        1.14379
H          0.46981        1.80569        2.08826
C          2.04381       -0.75429       -0.60989
C          1.90300       -2.07739       -1.04483
H          0.93708       -2.57010       -1.00537
C          2.99935       -2.79423       -1.51955
H          2.86430       -3.81806       -1.85429
C          4.26067       -2.20545       -1.55655
H          5.11593       -2.76462       -1.92277
C          4.41507       -0.89274       -1.11636
H          5.39295       -0.42164       -1.13603
C          3.31801       -0.17515       -0.64638
H          3.46006        0.84474       -0.30290
H         -2.90815       -0.54375       -1.49053
