31
id_1570_cb.log	Energy: -445615.1637750
C          4.82614       -0.46613        0.00541
H          5.91121       -0.49779        0.00762
C          4.09061       -1.67795        0.00256
H          4.62088       -2.62532        0.00260
C          2.71816       -1.65843       -0.00031
H          2.15317       -2.58676       -0.00253
C          2.01316       -0.42393       -0.00036
C          2.75171        0.79847        0.00252
C          4.17080        0.74030        0.00537
H          4.72885        1.67320        0.00754
C          2.05743        2.04271        0.00254
H          2.64290        2.95840        0.00469
C          0.68623        2.09376       -0.00011
H          0.16621        3.04760       -0.00018
C         -0.04600        0.88152       -0.00283
C          0.60020       -0.34424       -0.00297
C         -0.40387       -1.47269       -0.00583
H         -0.29495       -2.11858       -0.88585
H         -0.29829       -2.12005        0.87351
C         -1.72444       -0.73543       -0.00780
C         -1.49541        0.65251       -0.00560
C         -2.57398        1.53449       -0.00166
H         -2.41522        2.60967        0.00485
C         -3.86797        1.02426       -0.00158
H         -4.72057        1.69822        0.00276
C         -4.10215       -0.36240       -0.00565
C         -3.01028       -1.24785       -0.00771
H         -3.19010       -2.32053       -0.00792
N         -5.40599       -0.85460       -0.07162
H         -5.50690       -1.78588        0.31819
H         -6.09733       -0.22379        0.32011
