33
id_1630_ca.log	Energy: -445513.8608294
C         -4.16760        0.81033       -1.52359
H         -5.16690        1.16359       -1.27212
H         -4.22223       -0.04034       -2.20384
H         -3.57751        1.61433       -1.96240
N         -3.49837        0.35647       -0.27240
C         -4.28298       -0.72150        0.39317
H         -4.21672       -1.61915       -0.22310
H         -5.31729       -0.38898        0.47485
H         -3.87392       -0.89953        1.38630
C         -2.08188       -0.04516       -0.55059
H         -2.10849       -0.90428       -1.22456
H         -1.61260        0.80514       -1.05214
C         -1.33180       -0.36847        0.73424
C          0.13289       -0.58540        0.41688
C          0.61747       -1.86794        0.19067
H         -0.04758       -2.72200        0.28483
C          1.95608       -2.06558       -0.15460
H          2.35278       -3.06012       -0.33163
C          2.80667       -0.97805       -0.26594
C          2.32127        0.32271       -0.03270
C          0.98956        0.51790        0.30240
H          0.60477        1.51499        0.48739
O          3.26083        1.30463       -0.16731
C          2.82928        2.64357        0.03964
H          3.70590        3.27039       -0.11983
H          2.45844        2.77839        1.06073
H          2.04602        2.91348       -0.67590
O          4.11945       -1.17008       -0.59652
H          4.55490       -0.29978       -0.62284
O         -1.56644        0.73927        1.58879
H         -1.15352        0.55158        2.44749
H         -1.73127       -1.28863        1.17773
H         -3.45054        1.15053        0.37861
