45
id_1430_cb.log	Energy: -602206.4712760
C          4.96287       -1.43325        0.25713
H          6.00942       -1.70287        0.35879
C          4.22400       -1.89069       -0.82808
H          4.69006       -2.52170       -1.57846
C          2.87730       -1.54584       -0.96379
H          2.32360       -1.92220       -1.81647
C          2.26304       -0.73221       -0.01323
C          3.01107       -0.27954        1.08052
H          2.53613        0.35173        1.82826
C          4.34969       -0.62565        1.21628
H          4.91542       -0.26464        2.06952
C          0.77764       -0.32055       -0.10163
C          0.11208       -0.78531       -1.42491
H          0.08734       -1.87964       -1.44656
H          0.75951       -0.46234       -2.24662
C         -1.27213       -0.19211       -1.67092
H         -1.66106       -0.59716       -2.62284
H         -1.17304        0.89052       -1.80390
N         -2.20738       -0.41676       -0.57798
C         -2.66141       -1.80428       -0.52497
H         -3.16289       -2.08978       -1.46870
H         -1.80617       -2.47192       -0.38015
C         -3.62872       -1.98782        0.63134
H         -3.11138       -1.78577        1.58104
H         -4.01818       -3.00834        0.64833
O         -4.74835       -1.12096        0.50299
C         -4.31752        0.23281        0.46283
H         -5.21321        0.84888        0.35476
H         -3.81966        0.48916        1.41027
C         -3.36326        0.46783       -0.69498
H         -3.01874        1.50808       -0.67567
H         -3.90050        0.30100       -1.64740
C          0.13210       -1.01039        1.03505
N         -0.28479       -1.59549        1.94434
C          0.63743        1.19941        0.03825
C          1.37231        2.00755       -0.83535
H          2.05850        1.54864       -1.54323
C          1.23089        3.39084       -0.80245
H          1.80631        4.00642       -1.48689
C          0.35631        3.98443        0.10841
H          0.24689        5.06402        0.13556
C         -0.37165        3.18433        0.98367
H         -1.05157        3.63592        1.69951
C         -0.23398        1.79592        0.94849
H         -0.81305        1.18269        1.63255
