14
id_1077_cb.log	Energy: -1793837.2718760
C          1.75032       -1.20574       -0.00625
H          2.29162       -2.14775       -0.00549
C          0.36085       -1.20827       -0.00365
H         -0.18075       -2.14822        0.00101
C         -0.32697       -0.00000       -0.00316
C          0.36085        1.20827       -0.00365
H         -0.18075        2.14821        0.00101
C          1.75032        1.20574       -0.00625
H          2.29162        2.14775       -0.00549
C          2.46720       -0.00000       -0.00883
N          3.85725        0.00000       -0.07651
H          4.28493        0.83620        0.30715
H          4.28493       -0.83620        0.30715
Br        -2.22765        0.00000        0.00346
