30
id_1754_cb.log	Energy: -568926.3798174
C          1.26202        3.09711       -0.71505
H          0.74292        3.99630       -0.37164
H          2.33859        3.29165       -0.70656
H          0.96100        2.89992       -1.75087
C          0.92269        1.90498        0.16562
C          1.71672        0.66423       -0.27703
H          2.78940        0.84697       -0.15481
H          1.52911        0.47246       -1.34086
C          1.29623       -0.53296        0.55692
C         -0.20562       -0.79451        0.50012
C         -0.72952       -1.24930       -0.86723
H         -0.23941       -2.18431       -1.15653
H         -0.47674       -0.50898       -1.63783
C         -2.24835       -1.43600       -0.83438
H         -2.49596       -2.23739       -0.12458
H         -2.60717       -1.75702       -1.81815
C         -2.95296       -0.15022       -0.40025
H         -4.03529       -0.30777       -0.34236
H         -2.79129        0.62867       -1.15808
C         -2.42627        0.31974        0.95783
H         -2.67822       -0.43457        1.71420
H         -2.90624        1.25678        1.25942
C         -0.90833        0.50958        0.96115
N         -0.52937        1.68749        0.17007
H         -0.81348        1.53224       -0.79969
Cl         2.25065       -2.01174        0.05221
H          1.20751        2.13230        1.20216
H          1.59102       -0.37633        1.59793
H         -0.44539       -1.57622        1.23387
H         -0.58560        0.71666        1.99021
