19
id_1005_cb.log	Energy: -158745.6019533
C         -0.96058        1.43950        0.23283
H         -0.03788        2.01920        0.12240
H         -1.22569        1.42896        1.29769
H         -1.75285        1.97104       -0.30514
C         -0.80918        0.01234       -0.29331
H         -0.46295        0.06472       -1.33502
C         -2.15641       -0.70759       -0.27958
H         -2.55242       -0.75870        0.74218
H         -2.06398       -1.73265       -0.65479
H         -2.89302       -0.18440       -0.89862
C          0.22250       -0.78622        0.51196
H          0.31435       -1.78903        0.07107
H         -0.15759       -0.92515        1.53470
C          1.61226       -0.15310        0.58554
H          2.27685       -0.82328        1.14061
H          1.57002        0.77893        1.15840
N          2.24195        0.14357       -0.70669
H          1.65092        0.81749       -1.19422
H          2.18904       -0.70165       -1.27718
