24
id_1301_cb.log	Energy: -348607.6543631
C          4.06125       -1.07034        0.00484
H          3.75780       -1.62670        0.89845
H          5.14311       -0.93797        0.00636
H          3.76037       -1.62711       -0.88937
O          3.50356        0.23468        0.00375
C          2.13803        0.31930        0.00142
C          1.62409        1.64502        0.00076
H          2.33105        2.46907        0.00209
C          0.27456        1.86529       -0.00145
H         -0.11207        2.88093       -0.00185
C         -0.64689        0.77859       -0.00414
C         -2.04862        0.98374       -0.00338
H         -2.43388        2.00105        0.00041
C         -2.92376       -0.08406       -0.00768
C         -2.39494       -1.40631       -0.00671
H         -3.08750       -2.24420       -0.00885
C         -1.04280       -1.62561       -0.00220
H         -0.65634       -2.64152        0.00277
C         -0.12271       -0.54302       -0.00285
C          1.28400       -0.75697        0.00008
H          1.65224       -1.77733        0.00112
N         -4.30760        0.09386       -0.07880
H         -4.61387        0.99324        0.27820
H         -4.82939       -0.65783        0.36025
