18
id_1986_cb.log	Energy: -335538.0723874
C         -2.99910       -0.02056       -0.42771
H         -4.03928       -0.01396       -0.74043
C         -2.48985        1.03142        0.33425
H         -3.13264        1.85962        0.61908
C         -1.15484        1.01784        0.74045
H         -0.75876        1.83368        1.34097
C         -0.31800       -0.04220        0.38426
C         -0.83222       -1.09432       -0.38088
H         -0.18451       -1.92174       -0.65998
C         -2.16721       -1.08431       -0.78313
H         -2.55853       -1.90645       -1.37584
C          1.14441       -0.03744        0.78801
C          1.98839        0.45008       -0.41002
O          2.67833       -0.38928       -1.04059
O          1.88534        1.67983       -0.67168
O          1.59675       -1.32285        1.18586
H          1.07283       -1.60032        1.95548
H          1.28803        0.68456        1.60058
