21
id_1970_ca.log	Energy: -370475.1177167
C         -1.73619        2.52958       -0.00000
H         -2.38242        2.59646       -0.88175
H         -1.05747        3.38534       -0.00006
H         -2.38234        2.59651        0.88181
C         -0.95888        1.24406       -0.00000
C          0.42800        1.22365       -0.00000
H          0.98592        2.15370       -0.00001
C          1.09363       -0.00146        0.00000
C          0.41478       -1.21753       -0.00000
H          0.96195       -2.15392       -0.00000
C         -0.97406       -1.22489       -0.00000
C         -1.64144        0.01359        0.00000
O         -2.99748        0.08842        0.00001
H         -3.40029       -0.79702        0.00001
C         -1.75474       -2.51017       -0.00001
H         -1.07677       -3.36605       -0.00001
H         -2.39683       -2.58673       -0.88584
H         -2.39683       -2.58674        0.88583
N          2.54181       -0.01028        0.00000
O          3.12555       -1.08927        0.00001
O          3.13766        1.06202       -0.00000
