21
id_1067_cb.log	Energy: -206547.0494602
C         -2.00414        1.30603        0.17800
H         -1.96046        2.39651        0.11406
H         -2.47974        1.03543        1.12975
H         -2.66579        0.94494       -0.61786
C         -0.63024        0.69884        0.07624
C          0.44693        1.44158       -0.20521
H          0.31295        2.50804       -0.38854
C          1.85527        0.91245       -0.27202
H          2.18044        0.86113       -1.32130
H          2.53538        1.61915        0.21805
C          1.96160       -0.46969        0.37161
H          1.90629       -0.36684        1.46326
H          2.92870       -0.92666        0.13901
C          0.81609       -1.35709       -0.10462
H          0.92081       -2.38102        0.26837
H          0.83144       -1.40886       -1.20330
C         -0.53647       -0.80035        0.33066
N         -1.60221       -1.58676       -0.31215
H         -1.59564       -1.35223       -1.30661
H         -2.50356       -1.25380        0.02939
H         -0.64954       -0.95901        1.41288
