25
id_1215_cb.log	Energy: -348738.8245757
C         -2.01138       -0.33721       -1.67619
H         -0.97892       -0.27291       -2.02919
H         -2.67073       -0.03801       -2.49743
H         -2.23100       -1.37973       -1.42369
C         -2.23696        0.56169       -0.47015
C         -1.42188        0.11402        0.76083
C          0.06127        0.06610        0.48860
C          0.80003        1.25304        0.48345
H          0.30504        2.19134        0.72388
C          2.15685        1.25608        0.18270
H          2.73149        2.17689        0.18138
C          2.79712        0.05166       -0.11281
C          2.07832       -1.14238       -0.10698
H          2.58646       -2.07586       -0.33437
C          0.71741       -1.12811        0.18924
H          0.16142       -2.06006        0.19065
O          4.13766        0.09635       -0.39727
H          4.45093       -0.80533       -0.57867
O         -1.88643       -1.15663        1.18680
H         -2.84637       -1.12408        1.00090
N         -3.64928        0.48215       -0.07135
H         -4.23537        0.63600       -0.88998
H         -3.85414        1.24540        0.57319
H         -1.92248        1.58561       -0.71861
H         -1.60577        0.85861        1.55307
