16
id_1545_cb.log	Energy: -309081.9061309
C         -1.81276       -1.64967       -0.00000
H         -2.53486       -2.46335       -0.00000
C         -0.46266       -1.94530       -0.00000
H         -0.09294       -2.96573       -0.00000
C          0.45898       -0.87510        0.00000
C          0.00000        0.47811        0.00000
C         -1.42990        0.78655       -0.00000
C         -2.29110       -0.32936       -0.00000
H         -3.36220       -0.14229       -0.00000
O         -1.85440        2.00527       -0.00000
N          0.88182        1.50952        0.00000
C          2.16287        1.21329        0.00000
H          2.87718        2.03212        0.00000
C          2.62090       -0.12579        0.00000
H          3.68834       -0.33160        0.00000
N          1.80127       -1.15063        0.00000
