34
id_1283_ca.log	Energy: -527102.6067146
C         -5.31347       -0.61540       -0.16646
H         -6.39309       -0.70574       -0.23683
C         -4.50104       -1.44365       -0.94344
H         -4.95237       -2.17061       -1.61097
C         -3.11170       -1.34221       -0.86867
H         -2.48102       -1.99044       -1.47184
C         -2.56376       -0.39026       -0.01612
C         -3.37013        0.44124        0.76452
C         -4.75460        0.32909        0.69566
H         -5.39115        0.97222        1.29655
C         -2.52423        1.35916        1.61415
H         -2.92289        2.37430        1.67701
H         -2.45196        0.96698        2.63505
C         -1.15140        1.30987        0.91403
H         -0.30882        1.48265        1.58507
H         -1.12915        2.06833        0.12227
C         -1.11334       -0.08018        0.26397
N         -0.28782       -0.08070       -1.00763
H         -0.74180        0.54395       -1.69025
C          1.10330        0.33600       -0.81042
C          1.48426        1.62309       -1.16955
H          0.76291        2.29987       -1.61844
C          2.79976        2.02427       -0.95107
H          3.11032        3.02463       -1.22860
C          3.71659        1.14751       -0.38244
H          4.74430        1.44085       -0.20803
C          3.28479       -0.12784       -0.04333
C          1.98444       -0.56775       -0.24160
H          1.67961       -1.57238        0.03074
N          4.24479       -1.06434        0.54902
O          3.85167       -2.18175        0.83787
O          5.38748       -0.67809        0.72285
H         -0.64574       -0.83292        0.90588
H         -0.30792       -1.02528       -1.41843
