21
id_1347_ca.log	Energy: -182949.0423316
C          1.89945        0.04106        0.82102
H          2.59426        0.88472        0.83058
H          2.48296       -0.88206        0.89186
H          1.26010        0.12022        1.70337
C          1.11580        0.08524       -0.47971
C          0.18923        1.29135       -0.62572
H          0.79013        2.19299       -0.47472
H         -0.18833        1.31911       -1.65538
C         -0.99365        1.24590        0.34418
H         -0.64227        1.32636        1.37924
H         -1.64868        2.10188        0.15965
C         -1.77388       -0.05694        0.16636
H         -2.22310       -0.08816       -0.83436
H         -2.58690       -0.13455        0.89324
C         -0.87016       -1.26625        0.33854
H         -1.38211       -2.20355        0.11862
H         -0.44697       -1.32194        1.34295
N          0.28252       -1.17196       -0.61989
H         -0.08880       -1.20890       -1.57746
H          1.81119        0.04685       -1.32075
H          0.89012       -1.99146       -0.50558
