27
id_1087_ca.log	Energy: -279305.7429828
C         -3.72978       -0.57628       -1.02035
H         -4.55262       -0.08705       -0.48801
H         -4.07177       -1.56843       -1.32975
H         -3.52577        0.00611       -1.92553
C         -2.48685       -0.66370       -0.14007
H         -1.69013       -1.18835       -0.68115
H         -2.70427       -1.26338        0.75358
C         -1.99593        0.71586        0.29167
H         -2.81301        1.24860        0.79299
H         -1.74070        1.30385       -0.60090
C         -0.79705        0.67271        1.25534
H         -1.07090        0.07671        2.13240
H         -0.58818        1.68558        1.61832
C          0.43853        0.06312        0.63884
C          0.71000       -1.30202        0.77498
H          0.02834       -1.90733        1.36637
C          1.82207       -1.88897        0.17746
H          2.00228       -2.95167        0.30325
C          2.70312       -1.11649       -0.57498
H          3.57343       -1.56528       -1.04112
C          2.46551        0.24613       -0.72364
H          3.14140        0.87316       -1.29813
C          1.34613        0.80180       -0.12151
N          1.13076        2.25035       -0.28212
H          0.23288        2.46354       -0.73735
H          1.87107        2.66858       -0.86016
H          1.13805        2.73984        0.62369
