39
id_1333_ca.log	Energy: -424500.1673369
C          2.49960        1.35890        0.71510
H          1.74364        1.64528        1.45497
H          2.53158        2.10795       -0.07982
H          3.47412        1.35831        1.21011
C          2.24129       -0.04911        0.18182
C          2.37480       -1.04054        1.33912
H          2.26299       -2.08049        1.02578
H          1.65203       -0.82199        2.13203
H          3.37880       -0.93071        1.75760
C          3.20591       -0.39759       -0.94456
H          4.22204       -0.22886       -0.57701
H          3.06066        0.23303       -1.82662
H          3.12607       -1.44716       -1.23863
N          0.78082       -0.09953       -0.32694
C          0.42889       -1.41426       -0.98511
H          0.97421       -1.43559       -1.93046
H          0.80755       -2.20799       -0.34088
C         -1.05795       -1.63752       -1.26147
H         -1.45171       -0.87130       -1.93495
H         -1.08710       -2.56895       -1.83655
C         -2.00953       -1.81072       -0.07309
H         -1.74338       -2.70699        0.50016
H         -3.01199       -1.97924       -0.47630
C         -2.09957       -0.65053        0.92543
C         -2.22823        0.70075        0.21935
O         -3.05434        0.82074       -0.66786
C         -1.31974        1.84920        0.60908
H         -0.79043        1.62795        1.53658
H         -1.96329        2.71542        0.78934
C         -0.32538        2.22390       -0.50941
H          0.39690        2.92526       -0.08757
H         -0.86521        2.75257       -1.30016
C          0.38538        1.06130       -1.21145
H          1.28220        1.41335       -1.72162
H         -0.27132        0.65646       -1.97854
O         -0.96962       -0.60416        1.79292
H         -0.78985       -1.50673        2.10669
H         -3.01306       -0.77063        1.52354
H          0.22772       -0.07760        0.55147
