14
id_1738_cb.log	Energy: -487229.1275325
C         -2.76006        0.99108        0.00000
H         -3.53333        1.76265        0.00000
H         -2.87193        0.37713        0.89635
H         -2.87193        0.37713       -0.89635
S         -1.17921        1.87159        0.00000
C          0.00000        0.55192        0.00000
C         -0.32969       -0.78368        0.00000
H         -1.35276       -1.14055        0.00000
C          0.73307       -1.74469        0.00000
N          2.02597       -1.28377        0.00000
C          2.19984        0.03239        0.00000
H          3.23304        0.37497        0.00000
N          1.28102        0.99624        0.00000
O          0.50705       -2.99575        0.00000
