21
id_1514_cb.log	Energy: -206552.6010108
C         -0.81303       -1.38962        0.49173
H         -1.31774       -2.19282       -0.05578
H         -0.99972       -1.55293        1.55960
C          0.70720       -1.39698        0.19214
H          0.92773       -2.02592       -0.67648
H          1.26875       -1.80322        1.03911
N          1.22264       -0.04746       -0.10149
C          0.61913        0.41131       -1.36577
H          0.90520        1.45937       -1.50180
H          1.06624       -0.15735       -2.18702
C         -0.92299        0.25973       -1.36617
H         -1.39973        1.17035       -1.74445
H         -1.23221       -0.56691       -2.01647
C         -1.37002       -0.02241        0.07406
H         -2.46164       -0.01205        0.14795
C         -0.75615        1.04676        0.98714
H         -1.14773        0.95202        2.00561
H         -1.02896        2.04391        0.62228
C          0.78187        0.85853        0.97464
H          1.12753        0.43188        1.92185
H          1.29032        1.81906        0.84570
