41
id_1852_cb.log	Energy: -532657.5743398
C          2.79083       -0.79775        1.97484
H          3.35428       -1.72904        2.09700
H          1.81451       -0.92741        2.45260
H          3.32336        0.00031        2.50412
C          2.63283       -0.45280        0.49812
C          1.93596       -1.60058       -0.27823
H          2.09285       -1.47029       -1.35859
H          2.41712       -2.54623       -0.00161
C          0.42955       -1.65538       -0.01648
H          0.22633       -1.86846        1.04248
H          0.01481       -2.48732       -0.59418
C         -0.23794       -0.32888       -0.40414
C         -1.75618       -0.32852       -0.25058
C         -2.51991       -1.45951       -0.58440
H         -2.01819       -2.35641       -0.94177
C         -3.90616       -1.48563       -0.48400
H         -4.45579       -2.38657       -0.75117
C         -4.63721       -0.35157       -0.03651
C         -3.85560        0.78802        0.27838
H         -4.37574        1.68616        0.61361
C         -2.46112        0.81325        0.17926
C         -1.74008        2.09314        0.56365
H         -2.30556        2.95445        0.18947
H         -1.73758        2.18046        1.65962
C         -0.29833        2.13171        0.06649
H          0.23464        2.97597        0.52214
H         -0.27749        2.28489       -1.02213
C          0.39550        0.81405        0.40269
C          1.91497        0.88972        0.23483
C          2.42949        1.33701       -1.14990
H          1.88982        0.82237       -1.95231
H          2.30536        2.41225       -1.30316
C          3.90407        0.91570       -1.14532
H          4.53917        1.70508       -0.72019
H          4.32199        0.64823       -2.12005
C          3.97524       -0.25248       -0.18321
O          4.96798       -0.93775        0.01556
O         -5.94672       -0.35929        0.07430
H         -0.00350       -0.15328       -1.46773
H          0.19952        0.59977        1.46774
H          2.29472        1.61453        0.97225
