20
id_1080_cb.log	Energy: -1843140.4193006
C          3.80617        1.22497        0.15638
H          4.88218        1.06533        0.08352
H          3.56279        1.52337        1.18654
H          3.55060        2.04989       -0.51240
N          3.12506       -0.00000       -0.24526
C          3.80616       -1.22497        0.15640
H          3.56277       -1.52336        1.18656
H          4.88218       -1.06533        0.08356
H          3.55061       -2.04990       -0.51238
C          1.73523       -0.00000       -0.14725
C          1.00378       -1.20454       -0.10604
H          1.51242       -2.16036       -0.11511
C         -0.38477       -1.20414       -0.05410
H         -0.92159       -2.14646       -0.02514
C         -1.07614        0.00000       -0.03100
C         -0.38477        1.20414       -0.05409
H         -0.92158        2.14646       -0.02512
C          1.00378        1.20454       -0.10603
H          1.51242        2.16036       -0.11509
Br        -2.97442        0.00000        0.04560
