37
id_1638_ca.log	Energy: -400469.1310380
C         -4.30853       -0.95106        0.78502
H         -4.95157       -0.27470        1.35316
H         -4.09494       -1.82652        1.40900
H         -4.87089       -1.31051       -0.08428
C         -3.03976       -0.26070        0.36431
C         -2.80225        1.07038        0.70507
H         -3.55091        1.61075        1.27882
C         -1.63022        1.72100        0.32661
H         -1.48092        2.76046        0.60161
C         -0.65837        1.04310       -0.40950
C         -0.89720       -0.29131       -0.75865
H         -0.16534       -0.84777       -1.34103
C         -2.06774       -0.95109       -0.38287
C         -2.28901       -2.38841       -0.77018
H         -1.44364       -2.77522       -1.34439
H         -3.19522       -2.49846       -1.37666
H         -2.42109       -3.02068        0.11521
C          0.60786        1.76936       -0.84066
C          1.82501        0.85937       -0.98832
H          2.69754        1.45823       -1.25392
H          1.66673        0.10133       -1.75383
N          2.14996        0.17088        0.29583
H          1.35171       -0.41028        0.59121
C          3.38824       -0.69645        0.27078
H          4.18000       -0.04783       -0.11285
C          3.68684       -1.11853        1.69856
H          2.87980       -1.74699        2.08979
H          3.81012       -0.24943        2.35148
H          4.61324       -1.69721        1.71389
C          3.15920       -1.88169       -0.65081
H          4.02459       -2.54576       -0.58595
H          3.04187       -1.58442       -1.69528
H          2.27222       -2.44271       -0.33523
O          0.91627        2.86190        0.01189
H          0.69078        2.61998        0.92555
H          0.44951        2.20583       -1.83348
H          2.27216        0.88661        1.02510
