30
id_1230_cb.log	Energy: -361543.2051914
C         -2.67730       -1.91982       -0.50289
H         -3.56677       -1.30749       -0.68148
H         -2.87395       -2.56916        0.35710
H         -2.52260       -2.54729       -1.38579
C         -1.44680       -1.06119       -0.24634
C         -0.20095       -1.93505       -0.03737
H         -0.32296       -2.50589        0.89070
H         -0.14748       -2.65017       -0.86534
C          1.06747       -1.11745        0.00750
C          1.67321       -0.69942       -1.18355
H          1.24717       -1.01422       -2.13367
C          2.80982        0.10456       -1.16410
H          3.26947        0.41360       -2.09823
C          3.35686        0.51282        0.05265
H          4.24206        1.14119        0.06977
C          2.76292        0.10571        1.24512
H          3.18382        0.41530        2.19706
C          1.62942       -0.70700        1.22072
H          1.17441       -1.03019        2.15444
N         -1.64388       -0.22161        0.94333
H         -0.73889        0.18381        1.18783
C         -2.57727        0.88264        0.76589
H         -3.58832        0.49718        0.61346
H         -2.58739        1.46160        1.69262
C         -2.26878        1.84427       -0.40465
H         -2.89987        2.73483       -0.33666
H         -2.45787        1.37535       -1.37462
C         -0.86612        2.25620       -0.36551
N          0.25390        2.54400       -0.29542
H         -1.25576       -0.45289       -1.14733
