29
id_143_cb.log	Energy: -303677.0276600
C          1.34704        2.43859       -0.06335
H          0.70211        2.75676        0.76614
H          0.85828        2.76086       -0.99094
H          2.29224        2.97905        0.02476
C          1.58607        0.95141       -0.04703
C          2.87763        0.44862        0.08212
H          3.69782        1.15687        0.17430
C          3.14017       -0.92136        0.10017
H          4.15662       -1.28648        0.20484
C          2.07267       -1.80304       -0.02222
H          2.24342       -2.87579       -0.01604
C          0.76955       -1.32902       -0.15750
H         -0.03565       -2.04469       -0.25892
C          0.49730        0.04881       -0.16758
N         -0.77845        0.57747       -0.35482
H         -0.81100        1.56065       -0.11154
C         -2.04690       -0.08351        0.02441
C         -3.09099        1.03562        0.05279
H         -3.14219        1.53989       -0.91799
H         -2.84134        1.77897        0.81872
H         -4.07817        0.62516        0.28232
C         -2.47741       -1.10537       -1.03356
H         -3.46823       -1.49695       -0.78074
H         -1.79614       -1.95584       -1.10867
H         -2.53690       -0.62703       -2.01625
C         -1.98425       -0.72520        1.41540
H         -2.97291       -1.10735        1.69006
H         -1.68466        0.01944        2.16085
H         -1.27949       -1.55909        1.46087
