22
id_183_ca.log	Energy: -337185.7307289
C         -3.30259        2.04979       -0.00004
H         -2.60654        2.89269        0.00086
H         -3.94688        2.13502        0.88153
H         -3.94540        2.13573       -0.88262
C         -2.56600        0.73552        0.00003
C         -3.27971       -0.47408        0.00003
H         -4.36732       -0.44883        0.00006
C         -2.61415       -1.69609        0.00000
H         -3.17959       -2.62333        0.00000
C         -1.22003       -1.73038       -0.00002
H         -0.69361       -2.68143       -0.00003
C         -0.48602       -0.53782       -0.00000
C         -1.17423        0.68844        0.00003
H         -0.61851        1.62308        0.00005
C          0.97718       -0.62579       -0.00001
H          1.38463       -1.63678       -0.00003
C          1.84423        0.39987        0.00002
H          1.53954        1.44134        0.00004
C          3.29008        0.13552        0.00000
O          3.82079       -0.96549       -0.00002
O          4.01168        1.27158        0.00001
H          4.96139        1.04379       -0.00001
