17
id_1931_cb.log	Energy: -251630.4479514
C          1.59284        0.60768        0.86721
H          1.05283        0.22474        1.74116
H          2.41133        1.24400        1.21216
C          0.62862        1.32731       -0.07407
H          1.18558        1.89554       -0.82510
H         -0.06825        2.00579        0.42285
C         -0.09020        0.14673       -0.77073
N          0.86827       -0.97065       -0.79560
H          0.43085       -1.73756       -0.28708
C          2.05570       -0.54696       -0.01533
H          2.45784       -1.39569        0.54106
H          2.83595       -0.19713       -0.70063
C         -1.33087       -0.21376        0.01678
O         -1.44343       -1.18631        0.73564
O         -2.31048        0.68390       -0.14911
H         -3.07002        0.41737        0.40419
H         -0.41918        0.43073       -1.77482
