23
id_1849_cb.log	Energy: -254364.2336446
C         -3.45428       -0.36092        0.05285
H         -3.79227       -1.40053        0.07724
H         -3.90264        0.11786       -0.82480
H         -3.85732        0.14618        0.93620
C         -1.94964       -0.28282        0.01288
C         -1.15553       -1.42393       -0.04078
H         -1.62573       -2.40452       -0.04948
C          0.23754       -1.33952       -0.07716
H          0.82258       -2.25234       -0.11317
C          0.87738       -0.09552       -0.07027
C          0.08709        1.07808       -0.01517
C         -1.29637        0.95737        0.02681
H         -1.89241        1.86794        0.07134
C          0.74931        2.42959       -0.00154
H          0.00193        3.22637        0.00512
H          1.39253        2.56933       -0.87825
H          1.38479        2.55938        0.88392
N          2.26625        0.02163       -0.16271
H          2.61466        0.85877        0.29124
C          3.08158       -1.14416        0.13455
H          2.97680       -1.89563       -0.65301
H          2.82354       -1.61699        1.09272
H          4.12732       -0.83624        0.16687
