21
id_1942_cb.log	Energy: -266544.8187702
C          2.89221       -0.48512        0.00596
H          3.29143        0.08009        0.85679
H          3.30227       -0.02571       -0.90202
H          3.29234       -1.50205        0.06842
C          1.38095       -0.52142        0.00148
C          0.71135       -1.74866        0.01102
H          1.29586       -2.66816        0.01945
C         -0.67753       -1.82703        0.00511
H         -1.17173       -2.79712        0.00268
C         -1.48777       -0.66450       -0.00437
C         -0.80398        0.59203        0.01268
C          0.59990        0.65353       -0.00583
C          1.27278        2.00872       -0.02937
H          0.79778        2.67633       -0.75616
H          2.33044        1.93300       -0.28977
H          1.20864        2.50537        0.94785
C         -1.62178        1.86029        0.03453
H         -1.15277        2.63628        0.64752
H         -2.62020        1.67022        0.43632
H         -1.75424        2.28275       -0.97185
O         -2.80208       -0.74977       -0.03081
