24
id_1146_ca.log	Energy: -254640.9693848
C         -2.10844        0.62664        1.52852
H         -1.11752        0.93609        1.86866
H         -2.72210        0.43303        2.41210
H         -2.57292        1.44545        0.97392
C         -2.05519       -0.65547        0.72683
H         -3.04894       -0.97922        0.41162
H         -1.58023       -1.46058        1.29009
N         -1.25086       -0.53485       -0.55737
C         -1.90646        0.35772       -1.56201
H         -1.29213        0.36560       -2.46134
H         -2.00590        1.36267       -1.15872
H         -2.89095       -0.05958       -1.77136
C          0.16988       -0.22645       -0.30177
C          0.61660        1.08841       -0.26546
H         -0.05806        1.91884       -0.44167
C          1.96227        1.32652        0.00714
H          2.32403        2.34873        0.03683
C          2.83512        0.26603        0.23797
H          3.88183        0.46145        0.44654
C          2.36572       -1.04536        0.19909
H          3.04138       -1.87562        0.37467
C          1.02419       -1.29822       -0.07091
H          0.64492       -2.31593       -0.10613
H         -1.26945       -1.47584       -0.97000
