41
id_131_ca.log	Energy: -472780.5209585
C         -2.66777       -1.65887        1.95523
H         -2.31232       -1.13067        2.84374
H         -2.33373       -2.69742        2.02385
H         -3.76175       -1.63015        1.95293
C         -2.09805       -0.95904        0.73085
C         -0.61173       -1.13241        0.61821
H         -0.24910       -2.14217        0.80388
C          0.27845       -0.17022        0.32056
C         -0.10821        1.25647        0.12262
C         -0.75446        1.97867        1.13117
H         -0.96724        1.49399        2.08094
C         -1.11593        3.30893        0.92584
H         -1.61506        3.85928        1.71728
C         -0.83337        3.93012       -0.28854
H         -1.11635        4.96574       -0.44917
C         -0.17847        3.22016       -1.29512
H          0.04772        3.70103       -2.24177
C          0.19103        1.89472       -1.08752
H          0.70705        1.34299       -1.86922
C          1.72196       -0.50277        0.16905
C          2.12774       -1.73857       -0.35276
H          1.37965       -2.44862       -0.69456
C          3.47907       -2.05155       -0.46295
H          3.77683       -3.01035       -0.87599
C          4.44690       -1.13325       -0.05826
H          5.50094       -1.37731       -0.14682
C          4.05458        0.10411        0.44916
H          4.80179        0.82611        0.76361
C          2.70321        0.42047        0.55432
H          2.40378        1.38615        0.95167
N         -2.78318       -1.48048       -0.53369
C         -2.48105       -2.90516       -0.85003
H         -1.42555       -2.98706       -1.11026
H         -3.09867       -3.19579       -1.69943
H         -2.71721       -3.52738        0.01179
C         -2.49899       -0.61200       -1.71109
H         -3.09715       -0.96971       -2.54903
H         -1.43648       -0.68656       -1.94527
H         -2.76669        0.41510       -1.46181
H         -2.37647        0.09525        0.74981
H         -3.79125       -1.41793       -0.34484
