33
id_1341_ca.log	Energy: -281572.5194405
C          4.56221        0.34533       -0.42205
H          4.49210        1.39380       -0.11381
H          4.52664        0.31482       -1.51626
H          5.53801       -0.03443       -0.10579
C          3.42756       -0.47558        0.18080
H          3.48802       -0.44676        1.27565
H          3.52992       -1.52690       -0.11338
C          2.05734        0.03884       -0.26041
H          1.97103       -0.03055       -1.35291
H          1.96612        1.09689        0.01039
C          0.95261       -0.77719        0.38953
H          0.88897       -0.59728        1.46540
H          1.12295       -1.84517        0.22967
N         -0.40730       -0.49943       -0.18419
C         -1.43871       -1.38370        0.46274
H         -1.06202       -2.40470        0.38069
H         -1.47298       -1.10698        1.51901
C         -2.79078       -1.22334       -0.21192
H         -2.72069       -1.59159       -1.24313
H         -3.50581       -1.86111        0.31528
C         -3.23912        0.23637       -0.21332
H         -3.42238        0.57003        0.81472
H         -4.18057        0.34092       -0.75977
C         -2.16316        1.10010       -0.86905
H         -2.43816        2.15882       -0.85566
H         -2.05348        0.80550       -1.92056
C         -0.80228        0.97079       -0.18275
C         -0.75749        1.56185        1.21781
H         -1.05895        2.61011        1.14250
H          0.25069        1.53584        1.63919
H         -1.44134        1.06630        1.91117
H         -0.04941        1.45901       -0.80503
H         -0.36657       -0.77135       -1.17627
