15
id_1842_ca.log	Energy: -1045816.3753984
C          0.97032       -1.21534       -0.00328
H          1.50867       -2.15580        0.00272
C          1.64295       -0.00000       -0.00388
C          0.97032        1.21534       -0.00328
H          1.50867        2.15580        0.00272
C         -0.41739        1.20225       -0.00710
C         -1.12150        0.00000       -0.01955
C         -0.41739       -1.20225       -0.00710
Cl        -1.27240       -2.71013        0.01102
N         -2.57889        0.00000       -0.01264
H         -2.96849       -0.82507       -0.49265
H         -2.96849        0.82508       -0.49264
Cl        -1.27240        2.71013        0.01102
Cl         3.37808       -0.00000        0.00056
H         -2.95785       -0.00001        0.94910
