27
id_1394_ca.log	Energy: -313276.6209191
C         -3.40243       -0.46925        0.62087
H         -4.23508       -0.90858        1.16062
C         -3.53056        0.76973        0.00214
H         -4.45912        1.32788        0.03990
C         -2.42951        1.29218       -0.66854
H         -2.49024        2.26113       -1.15604
N         -1.25644        0.65774       -0.75963
C         -1.14562       -0.53320       -0.15990
C         -2.18282       -1.13469        0.54551
H         -2.03149       -2.09802        1.02132
C          0.18403       -1.22748       -0.32640
H          0.23389       -1.72803       -1.29798
H          0.37078       -1.95895        0.46187
N          1.28414       -0.22940       -0.29561
C          2.61201       -0.75838       -0.75754
H          2.70938       -1.75544       -0.32397
H          2.59298       -0.83253       -1.84428
C          3.64565        0.22602       -0.18838
H          4.44890       -0.32928        0.29772
H          4.08511        0.83435       -0.97975
C          2.87164        1.10540        0.82283
H          2.66422        2.08969        0.39546
H          3.41183        1.24653        1.75955
C          1.56320        0.36331        1.05386
H          0.72170        0.98623        1.35707
H          1.67578       -0.47889        1.74140
H          0.99391        0.54366       -0.91292
