22
id_188_ca.log	Energy: -334916.9058249
C         -2.80888       -1.58090       -0.00000
H         -3.57517       -2.34885       -0.00001
C         -3.18665       -0.21766        0.00001
H         -4.23944        0.04472        0.00001
C         -2.23983        0.77817        0.00001
H         -2.55641        1.81663        0.00002
C         -0.86289        0.44354        0.00000
C         -0.47756       -0.92779       -0.00000
C         -1.48224       -1.92929       -0.00000
H         -1.17558       -2.97084       -0.00001
C          0.89631       -1.27374       -0.00000
H          1.18145       -2.32118       -0.00000
C          1.85832       -0.29021       -0.00000
C          1.50100        1.08541       -0.00000
H          2.27075        1.85119       -0.00001
C          0.17930        1.41043        0.00000
N         -0.19717        2.82668       -0.00001
H         -0.75744        3.07242       -0.82939
H          0.63327        3.43395       -0.00000
C          3.24861       -0.64782        0.00000
N          4.37191       -0.93400        0.00001
H         -0.75745        3.07242        0.82938
