18
id_1669_ca.log	Energy: -267590.7794283
C         -0.98026        1.78601        0.12946
H         -1.27221        2.81985        0.28093
C          0.34819        1.47007       -0.14796
H          1.09641        2.25455       -0.21446
C          0.72415        0.14097       -0.35048
C         -0.22893       -0.87622       -0.27113
H          0.03684       -1.91759       -0.42666
C         -1.54049       -0.53000        0.00760
C         -1.94153        0.78194        0.21005
H         -2.98308        0.99877        0.42085
F         -2.46216       -1.50701        0.08074
C          2.16240       -0.20625       -0.61425
H          2.70648        0.62729       -1.05712
H          2.26240       -1.08767       -1.24698
N          2.85488       -0.52959        0.67848
H          2.41194       -1.33261        1.14111
H          2.81201        0.26773        1.32434
H          3.84341       -0.75919        0.52231
