13
id_1708_cb.log	Energy: -237371.3522152
C         -0.85986        1.30022        0.00567
H         -1.04783        2.37122        0.01325
C         -1.92359        0.40402        0.00747
H         -2.94391        0.78291        0.01410
N         -1.78712       -0.92790        0.00424
C         -0.51584       -1.38697       -0.00495
H         -0.39500       -2.47009       -0.00699
C          0.61606       -0.59066       -0.01239
C          0.47673        0.83698       -0.00540
O          1.51898        1.60908       -0.00201
N          1.91471       -1.12800       -0.09071
H          2.59476       -0.49747        0.32675
H          1.98612       -2.04940        0.33197
