19
id_1100_cb.log	Energy: -621713.8094196
C         -2.90930       -2.22774       -0.00001
H         -2.61456       -2.79308        0.88972
H         -2.61456       -2.79306       -0.88975
H         -3.99256       -2.11687       -0.00001
N         -2.33009       -0.89812        0.00000
H         -2.94539       -0.09843        0.00001
C         -1.00609       -0.66699        0.00000
C         -0.09926       -1.76668       -0.00000
H         -0.49785       -2.77333       -0.00001
C          1.26229       -1.59260       -0.00000
H          1.91599       -2.45873       -0.00001
C          1.81127       -0.29907        0.00000
C          0.99169        0.79866        0.00000
H          1.39347        1.80381        0.00000
C         -0.40219        0.62411        0.00000
N         -1.18389        1.82423        0.00000
O         -0.61368        2.91107       -0.00003
O         -2.41465        1.74209        0.00003
Cl         3.54644       -0.09980        0.00001
