23
id_191_ca.log	Energy: -405329.8868728
C         -3.07553       -1.65425        0.00001
H         -3.80685       -2.45541        0.00001
C         -3.51271       -0.30943        0.00000
H         -4.57605       -0.09375        0.00001
C         -2.61155        0.72869        0.00000
H         -2.97515        1.75134       -0.00000
C         -1.22214        0.45627       -0.00000
C         -0.77695       -0.89754        0.00000
C         -1.73474       -1.94356        0.00000
H         -1.38143       -2.97006        0.00001
C          0.61046       -1.18407       -0.00000
H          0.95202       -2.21312        0.00000
C          1.50343       -0.14923       -0.00000
C          1.11109        1.20634       -0.00000
H          1.85172        1.99845       -0.00001
C         -0.22390        1.47016       -0.00000
N         -0.66071        2.86810       -0.00001
H         -1.22986        3.09104       -0.82993
H          0.14486        3.50830       -0.00001
N          2.93338       -0.44729        0.00000
O          3.71198        0.49248        0.00003
O          3.28016       -1.61671       -0.00003
H         -1.22986        3.09104        0.82992
