16
id_1106_ca.log	Energy: -238542.4621351
C          0.44839       -1.21878       -0.00093
H          0.99780       -2.15316       -0.00176
C         -0.94012       -1.21841       -0.00581
H         -1.49760       -2.14942       -0.01058
C         -1.60281       -0.00000       -0.00873
C         -0.94012        1.21841       -0.00581
H         -1.49760        2.14942       -0.01058
C          0.44839        1.21878       -0.00093
H          0.99779        2.15316       -0.00176
C          1.13417        0.00000        0.00164
C          2.57206        0.00000        0.00285
N          3.73094       -0.00000        0.00359
N         -3.07056       -0.00000        0.00807
H         -3.45524        0.83091       -0.46176
H         -3.45524       -0.83091       -0.46176
H         -3.43235       -0.00000        0.97284
