27
id_1753_cb.log	Energy: -255876.8358509
C         -2.19969        0.97410       -0.38755
H         -2.65052        1.32518        0.55157
H         -2.76494        1.43604       -1.20481
C         -2.31159       -0.54963       -0.45601
H         -1.94470       -0.89585       -1.42953
H         -3.36021       -0.85892       -0.38208
C         -1.49918       -1.20447        0.66321
H         -1.54527       -2.29847        0.58607
H         -1.94181       -0.93525        1.63133
C         -0.03638       -0.75855        0.67207
C          0.08023        0.77533        0.69229
C         -0.73584        1.41693       -0.43627
H         -0.66444        2.50872       -0.35492
H         -0.31006        1.14182       -1.40862
C          1.55835        1.18734        0.66634
H          1.64423        2.27830        0.59436
H          2.02228        0.89068        1.61699
C          2.31997        0.50738       -0.47431
H          3.39009        0.72901       -0.40061
H          1.97569        0.88496       -1.44432
C          2.10238       -1.00013       -0.42144
H          2.54864       -1.38963        0.51206
H          2.60985       -1.49273       -1.25647
N          0.67007       -1.29754       -0.49836
H          0.55347       -2.31023       -0.47721
H          0.43460       -1.13322        1.60112
H         -0.35692        1.11251        1.64358
