21
id_1268_ca.log	Energy: -323607.3017985
C         -0.96558        1.43823       -0.18036
H         -1.70088        2.23596       -0.22948
C          0.38176        1.76052        0.04701
H          0.71149        2.78408        0.18164
C          1.26697        0.70744        0.08655
C          0.85576       -0.61239       -0.08440
C         -0.45909       -0.94445       -0.30607
H         -0.77276       -1.97491       -0.44035
C         -1.38148        0.12055       -0.35627
C         -2.83655       -0.18132       -0.56901
H         -2.98926       -1.03046       -1.23500
H         -3.38012        0.68310       -0.94922
N         -3.48686       -0.54892        0.73646
H         -3.40680        0.22127        1.41063
H         -3.03873       -1.37492        1.15087
O          1.94218       -1.44548        0.03601
C          3.08142       -0.58237       -0.00288
H          3.80516       -0.90329        0.74400
H          3.50338       -0.58347       -1.01335
O          2.62044        0.73386        0.31506
H         -4.48370       -0.75913        0.60908
