20
id_1380_ca.log	Energy: -240058.6410180
C          2.62755       -0.36445        1.07824
H          3.09626        0.55973        1.41294
H          3.30557       -1.20690        1.20221
H          1.69952       -0.54122        1.62085
N          2.30875       -0.22521       -0.36978
H          1.88848       -1.10275       -0.70903
C          1.33055        0.86158       -0.66242
H          1.62742        1.74939       -0.10271
H          1.39703        1.07471       -1.73202
C         -0.06000        0.39842       -0.30076
C         -1.02472        1.30718        0.12293
H         -0.77116        2.35532        0.24290
C         -2.30588        0.83327        0.38400
H         -3.08550        1.51191        0.71457
C         -2.56610       -0.52432        0.22439
H         -3.54795       -0.93913        0.42228
C         -1.52980       -1.35297       -0.19094
H         -1.69278       -2.41951       -0.31770
N         -0.29713       -0.90780       -0.45725
H          3.17225       -0.06281       -0.89775
