25
id_121_cb.log	Energy: -365808.3085577
C         -2.65465        0.08458       -0.99548
H         -2.95183       -0.92394       -1.30424
H         -2.53762        0.68976       -1.90177
H         -3.47751        0.51351       -0.41254
Si        -1.05875        0.04847        0.00514
C         -0.67163        1.81398        0.54859
H         -0.46543        2.45526       -0.31669
H          0.18904        1.87170        1.22379
H         -1.53245        2.24207        1.07594
C         -1.28905       -1.04989        1.51869
H         -0.39470       -1.05676        2.15209
H         -1.49874       -2.08506        1.22544
H         -2.12804       -0.70065        2.13125
C          0.30871       -0.66625       -1.09489
H         -0.14701       -1.46874       -1.69073
H          0.61425        0.10005       -1.82103
C          1.54162       -1.22457       -0.36941
H          1.24492       -2.07569        0.25796
H          2.25824       -1.61567       -1.10529
C          2.26472       -0.20576        0.51243
H          3.15348       -0.67722        0.94503
H          1.62646        0.07538        1.35831
N          2.68768        1.02880       -0.15776
H          1.85255        1.49972       -0.50751
H          3.20492        0.76354       -0.99728
