15
id_1329_ca.log	Energy: -133611.1561096
C          1.96612       -0.46237        0.07602
H          2.05330       -0.19567        1.13307
H          2.72361        0.07813       -0.49620
H          2.14914       -1.53463       -0.02848
C          0.59283       -0.15377       -0.43977
C         -0.59283       -0.15378        0.43976
N          0.00002        1.14072        0.00000
H          0.52203        1.68514        0.68820
C         -1.96613       -0.46236       -0.07602
H         -2.05334       -0.19562       -1.13306
H         -2.72362        0.07810        0.49623
H         -2.14912       -1.53462        0.02845
H          0.40525       -0.32863       -1.49448
H         -0.40527       -0.32866        1.49447
H         -0.52201        1.68517       -0.68816
