19
id_1107_ca.log	Energy: -624203.4180295
C          0.37137        2.53417        0.29844
H          0.42550        3.60210        0.48241
C         -0.86269        1.90281        0.18389
H         -1.77950        2.47296        0.28688
C         -0.92392        0.52552       -0.03824
C          0.24297       -0.25292       -0.18329
C          1.46063        0.42050       -0.05116
C          1.54062        1.79124        0.18620
H          2.51122        2.26737        0.28111
Cl         2.97450       -0.45437       -0.16969
C          0.17904       -1.73823       -0.47868
H          1.11138       -2.06812       -0.93498
H         -0.62968       -1.93934       -1.18720
O          0.00914       -2.51359        0.70252
H         -0.90343       -2.34933        1.00168
C         -2.26449       -0.12642       -0.05547
O         -2.48138       -1.27086        0.30696
O         -3.23662        0.68251       -0.48383
H         -4.09218        0.21411       -0.42047
