22
id_1781_ca.log	Energy: -253878.4533074
C          1.87677       -1.56427        0.03918
H          2.35646       -2.53658        0.08410
C          2.63363       -0.40790        0.20658
H          3.70154       -0.46912        0.38551
C          2.01456        0.83864        0.14676
H          2.58080        1.75606        0.27879
C          0.64988        0.88760       -0.08073
C         -0.14303       -0.24846       -0.25247
C          0.50383       -1.48321       -0.18753
H         -0.08068       -2.38845       -0.32015
C         -1.60845       -0.10566       -0.49761
H         -1.86530        0.35225       -1.45094
C         -2.57620       -1.11449        0.03857
H         -3.43258       -1.36313       -0.57783
H         -2.17277       -1.93767        0.61934
C         -2.52146        0.25310        0.65495
H         -2.06804        0.33752        1.63835
H         -3.33399        0.94332        0.45655
N         -0.01397        2.19730       -0.14642
H         -0.84925        2.22387        0.45638
H          0.61479        2.95428        0.15087
H         -0.33036        2.41440       -1.10223
