17
id_1998_ca.log	Energy: -467370.5636701
C          2.67832        1.27555        0.00000
H          2.31108        1.77973       -0.89675
H          3.77038        1.30395       -0.00000
H          2.31108        1.77972        0.89676
S          2.23282       -0.47763       -0.00000
C          0.45966       -0.44133       -0.00000
C         -0.19805       -1.68046        0.00000
H          0.37522       -2.60357        0.00000
C         -1.58909       -1.72061        0.00000
H         -2.09543       -2.68157        0.00000
C         -2.34373       -0.54832        0.00000
H         -3.42901       -0.57050        0.00000
C         -1.67789        0.67500       -0.00000
C         -0.28230        0.74228       -0.00000
H          0.19371        1.71836       -0.00000
O         -2.44618        1.81303       -0.00000
H         -1.87429        2.59904        0.00000
