34
id_1656_cb.log	Energy: -422695.0646093
C          0.47293       -2.01704        0.79582
H         -0.26510       -2.29513        0.03895
H         -0.07167       -1.60042        1.65236
H          0.96388       -2.92935        1.14664
C          1.49958       -1.04240        0.27261
C          2.77391       -1.03162        0.84836
H          2.99109       -1.73402        1.64957
C          3.76362       -0.15265        0.41553
H          4.74396       -0.16763        0.88217
C          3.49001        0.73627       -0.62008
H          4.25192        1.42488       -0.97199
C          2.22614        0.73314       -1.20483
H          2.00398        1.42272       -2.01594
C          1.22431       -0.14078       -0.77278
C         -0.13019       -0.09917       -1.44206
H         -0.40969       -1.10632       -1.76945
H         -0.07339        0.52486       -2.34915
N         -1.18689        0.39133       -0.54682
C         -2.51734        0.07080       -1.07961
H         -3.24126        0.76171       -0.63624
H         -2.55573        0.20305       -2.17276
C         -2.92071       -1.34254       -0.69170
H         -2.26042       -2.08249       -1.16596
H         -3.94215       -1.54460       -1.02575
O         -2.89502       -1.48371        0.72175
H         -2.07799       -1.03092        0.99661
C         -1.05475        1.82866       -0.27389
H          0.00482        2.09921       -0.32266
H         -1.59086        2.43616       -1.01860
C         -1.54546        2.11931        1.13417
H         -2.60592        1.84692        1.23663
H         -1.44561        3.18393        1.36306
O         -0.75547        1.40129        2.07394
H         -0.60001        0.53565        1.65559
