26
id_174_ca.log	Energy: -349022.7799228
C          3.63186        1.07430       -1.01913
H          3.66821        1.91694       -0.32984
H          3.61986        1.42231       -2.05035
H          4.47275        0.40340       -0.84994
N          2.37474        0.31943       -0.76055
H          1.56620        0.93061       -0.93674
C          2.29239       -0.21376        0.63429
H          3.14736       -0.87730        0.77075
H          2.39301        0.63933        1.30601
C          0.99895       -0.98955        0.88832
C         -0.25828       -0.19303        0.55816
C         -0.34934        1.16953        0.86451
H          0.47319        1.68808        1.34751
C         -1.51566        1.87186        0.56471
H         -1.58116        2.92858        0.80416
C         -2.59653        1.23920       -0.03748
H         -3.50777        1.77676       -0.27847
C         -2.50387       -0.11972       -0.33587
C         -1.34363       -0.83492       -0.03913
H         -1.30513       -1.89536       -0.27060
O         -3.58567       -0.71392       -0.92366
H         -3.38900       -1.65228       -1.08232
O          1.03210       -2.25170        0.24617
H          0.80568       -2.14141       -0.69261
H          1.00330       -1.21237        1.96099
H          2.30353       -0.46167       -1.42495
