18
id_1422_cb.log	Energy: -397795.2298102
C         -2.01272        1.68421        0.04442
H         -2.51968        2.64371        0.00990
C         -0.65445        1.62323        0.36090
H         -0.10246        2.53515        0.57222
C          0.00492        0.39379        0.41092
C         -0.70183       -0.78417        0.14699
H         -0.21791       -1.75675        0.17562
C         -2.04706       -0.68668       -0.16051
C         -2.72984        0.51911       -0.22163
H         -3.78689        0.53514       -0.46660
F         -2.73300       -1.82890       -0.41843
C          1.49002        0.31873        0.70951
C          2.24564        0.01426       -0.60289
O          2.78462       -1.11180       -0.73442
O          2.23270        0.94242       -1.45688
O          1.79212       -0.68571        1.66482
H          1.34918       -0.44977        2.49628
H          1.83113        1.29853        1.06404
