26
id_121_ca.log	Energy: -366102.1945226
C         -2.71940        0.09035       -0.99293
H         -3.01158       -0.92074       -1.29737
H         -2.60242        0.69263       -1.90098
H         -3.54408        0.51869       -0.41240
Si        -1.12817        0.06584        0.01018
C         -0.73083        1.83039        0.54425
H         -0.54431        2.46856       -0.32761
H          0.14684        1.88983        1.19796
H         -1.57703        2.26056        1.09259
C         -1.33112       -1.03733        1.52208
H         -0.42828       -1.04107        2.14372
H         -1.54009       -2.07267        1.22941
H         -2.16296       -0.69276        2.14664
C          0.24673       -0.64074       -1.09397
H         -0.21329       -1.42880       -1.70426
H          0.56456        0.12699       -1.81385
C          1.46046       -1.25170       -0.37928
H          1.13763       -2.09059        0.24733
H          2.17011       -1.66195       -1.10859
C          2.21454       -0.30489        0.53812
H          3.08017       -0.79276        0.98628
H          1.58979        0.09974        1.33631
N          2.74805        0.87326       -0.22217
H          1.99501        1.45763       -0.60357
H          3.33119        0.56493       -1.00933
H          3.32454        1.47075        0.38076
