21
id_1052_ca.log	Energy: -471338.4905862
C          2.34587        0.05060       -0.33561
H          2.33646       -0.04464       -1.42852
H          3.37430        0.27172       -0.03671
C          1.87150       -1.25780        0.29555
H          1.96327       -1.19297        1.38697
H          2.49682       -2.09241       -0.03458
C          0.41389       -1.54462       -0.07548
H          0.05822       -2.45934        0.40561
H          0.32300       -1.67573       -1.16049
C         -0.47321       -0.38306        0.35137
C         -0.00949        0.91264       -0.29770
C          1.43975        1.21042        0.07779
H          1.74601        2.14300       -0.40705
H          1.49682        1.36083        1.16376
N         -0.87098        2.05482        0.14743
H         -1.85629        1.92029       -0.11294
H         -0.55110        2.93170       -0.28297
Cl        -2.19967       -0.71905       -0.10856
H         -0.47854       -0.27264        1.43971
H         -0.12387        0.84777       -1.38317
H         -0.82370        2.17357        1.16835
