36
id_1322_cb.log	Energy: -376891.3649100
C          4.00427       -2.23351       -0.76728
H          3.99119       -2.90885       -1.62754
H          3.80099       -2.82927        0.12936
H          5.01606       -1.82482       -0.67423
C          2.97481       -1.11737       -0.92287
H          1.98303       -1.56049       -1.06856
H          3.19498       -0.52482       -1.81897
C          2.97757       -0.20332        0.29679
H          4.00943        0.11950        0.48447
H          2.67584       -0.78757        1.18579
N          2.17275        1.01409        0.15254
C          2.30018        1.80453        1.37286
H          1.89999        1.30384        2.26990
H          1.79972        2.76904        1.26461
H          3.36106        2.00142        1.55425
C          0.77064        0.72780       -0.20226
C         -0.06144        2.00206       -0.34064
H         -0.28487        2.41169        0.65237
H          0.49851        2.76280       -0.89468
C         -1.37057        1.68329       -1.05848
H         -1.15901        1.45803       -2.11252
H         -2.03139        2.55685       -1.05760
C         -2.09442        0.50535       -0.44042
C         -3.45241        0.30526       -0.71676
H         -3.96545        1.01546       -1.36165
C         -4.14792       -0.77360       -0.18405
H         -5.20136       -0.90858       -0.41018
C         -3.48238       -1.67847        0.64417
H         -4.01144       -2.52700        1.06749
C         -2.13426       -1.48807        0.92320
H         -1.60994       -2.19206        1.56581
C         -1.42519       -0.40253        0.39340
C          0.04018       -0.23378        0.74596
H          0.51698       -1.22074        0.74151
H          0.11648        0.14198        1.77565
H          0.79551        0.25904       -1.19476
