33
id_1151_ca.log	Energy: -328615.0131748
C         -5.01016       -1.36966        0.23910
H         -4.54839       -2.27945        0.63806
H         -5.79755       -1.67117       -0.45837
H         -5.48492       -0.84377        1.07462
C         -3.96919       -0.48475       -0.43904
H         -4.45505        0.40752       -0.85412
H         -3.52482       -1.02003       -1.28796
C         -2.85957       -0.05235        0.51614
H         -2.37028       -0.94373        0.93269
H         -3.29922        0.48770        1.36589
C         -1.80970        0.83012       -0.15402
H         -2.28940        1.72616       -0.56984
H         -1.38267        0.27992       -1.00404
C         -0.70856        1.25396        0.81638
H         -0.21265        0.37268        1.24122
H         -1.15391        1.79707        1.65763
C          0.32399        2.18602        0.21203
H          1.06556        2.50838        0.94443
H         -0.13854        3.06457       -0.24187
N          1.10817        1.52090       -0.90118
H          0.46601        1.25267       -1.65850
C          1.88284        0.34813       -0.47478
C          1.43648       -0.92016       -0.81608
H          0.53805       -1.04373       -1.41442
C          2.17050       -2.02165       -0.38057
H          1.83848       -3.02119       -0.64002
C          3.32307       -1.83881        0.37994
H          3.89155       -2.70006        0.71520
C          3.75154       -0.55324        0.70932
H          4.65224       -0.41071        1.29678
C          3.02800        0.55629        0.28259
H          3.34834        1.56533        0.52625
H          1.74463        2.22218       -1.30147
