18
id_145_cb.log	Energy: -540617.5821686
C          3.40502       -1.00511       -0.00010
H          3.59847       -0.39976        0.89130
H          3.59204       -0.40764       -0.89819
H          4.05879       -1.87696        0.00148
O          2.07768       -1.51350        0.00671
C          1.05849       -0.60895        0.00034
C          1.24963        0.76922       -0.00361
H          2.24341        1.20226       -0.00318
C          0.13618        1.62623       -0.00914
C         -1.15821        1.09108       -0.00598
H         -2.02426        1.74406       -0.00651
C         -1.30127       -0.29008       -0.00242
C         -0.22842       -1.16416        0.00012
H         -0.35783       -2.23979        0.00424
Cl        -2.92329       -0.95808        0.00375
N          0.32135        3.00027       -0.08045
H         -0.45787        3.54159        0.27774
H          1.20379        3.32036        0.30364
