16
id_1118_cb.log	Energy: -680353.8110428
C         -0.13822        2.57014       -0.14988
H         -0.19709        3.65141       -0.21099
C          1.09838        1.93210       -0.12152
H          2.01411        2.51610       -0.15153
C          1.19079        0.54023       -0.04654
C          0.02605       -0.22426       -0.01159
C         -1.20894        0.43129       -0.03687
C         -1.30458        1.81687       -0.09391
H         -2.28380        2.28305       -0.11197
N         -2.47320       -0.30642       -0.01326
O         -2.56235       -1.33196       -0.66605
O         -3.38785        0.16681        0.64403
Cl         0.16814       -1.94715        0.16444
C          2.56463       -0.11739        0.01529
O          3.01620       -0.57962       -1.06109
O          3.12802       -0.11747        1.13837
