22
id_1409_cb.log	Energy: -384082.4776085
C         -4.90422       -0.45696        0.00001
H         -4.78848       -1.07496       -0.89628
H         -5.88844        0.01048        0.00001
H         -4.78848       -1.07495        0.89630
O         -3.96509        0.61377        0.00001
C         -2.63945        0.28964        0.00000
C         -1.74471        1.37102       -0.00000
H         -2.14375        2.38126       -0.00000
C         -0.37940        1.14473       -0.00000
H          0.29322        1.99780       -0.00001
C          0.13822       -0.16489        0.00000
C         -0.77229       -1.22671        0.00000
H         -0.39591       -2.24700        0.00001
C         -2.15239       -1.01805        0.00001
H         -2.82222       -1.87029        0.00001
C          1.57604       -0.46365       -0.00000
H          1.82627       -1.52455        0.00000
C          2.58616        0.41876       -0.00001
H          2.40930        1.49195       -0.00001
C          4.02919        0.00019       -0.00001
O          4.31508       -1.23204       -0.00001
O          4.88446        0.93648       -0.00001
