23
id_178_cb.log	Energy: -254356.8380797
C          2.96844        1.11300       -0.06468
H          3.91565        0.64838        0.22694
H          2.43274        1.38257        0.85635
H          3.19941        2.03796       -0.59908
N          2.24575        0.20555       -0.95360
H          1.36543        0.65631       -1.20619
C          1.92045       -1.06289       -0.30404
H          1.47642       -1.72606       -1.05508
H          2.86050       -1.52429        0.01856
C          0.96217       -0.98952        0.90044
H          0.83954       -2.00390        1.29581
H          1.40569       -0.38153        1.69606
C         -0.37916       -0.42719        0.50557
C         -0.63920        0.94482        0.59164
H          0.11918        1.60556        1.00646
C         -1.85961        1.46965        0.16704
H         -2.04487        2.53683        0.24613
C         -2.83965        0.62725       -0.35339
H         -3.79155        1.03339       -0.68153
C         -2.59107       -0.74196       -0.44815
H         -3.35050       -1.40610       -0.85022
C         -1.37036       -1.26123       -0.02445
H         -1.17990       -2.32962       -0.09901
