39
id_1116_ca.log	Energy: -377920.3904581
C         -0.62648       -3.96529       -1.20998
H          0.41871       -4.07376       -1.51809
H         -1.15795       -3.43639       -2.00825
H         -1.05826       -4.96648       -1.12303
C         -0.72808       -3.20345        0.10673
H         -0.20424       -3.75465        0.89747
H         -1.77782       -3.12944        0.41613
C         -0.13944       -1.79675       -0.00506
H         -0.69878       -1.22429       -0.75173
H          0.89671       -1.85890       -0.35591
C         -0.17654       -1.11806        1.35444
H          0.55793       -1.57102        2.02384
H         -1.15919       -1.19200        1.82622
N          0.15407        0.36869        1.32402
C         -1.06145        1.25736        1.13812
H         -1.55384        1.24683        2.11321
H         -0.67394        2.26325        0.96124
C         -2.05975        0.84200        0.06838
H         -1.59855        0.78217       -0.92191
H         -2.47040       -0.14827        0.29712
C         -3.20107        1.86025        0.02873
H         -3.65865        1.93053        1.02294
H         -2.79229        2.85131       -0.20235
C         -4.25757        1.48166       -1.00337
H         -4.69372        0.50357       -0.77472
H         -3.82156        1.42805       -2.00650
H         -5.06841        2.21533       -1.02711
C          1.32393        0.66276        0.46801
C          2.56045        0.22813        0.93599
H          2.63343       -0.27730        1.89523
C          3.69439        0.45482        0.16419
H          4.66176        0.12217        0.52516
C          3.58595        1.11083       -1.06149
H          4.47158        1.28827       -1.66264
C          2.34216        1.54498       -1.50885
H          2.25221        2.06307       -2.45768
C          1.19593        1.32368       -0.74512
H          0.23602        1.67758       -1.10082
H          0.46633        0.58198        2.27969
