31
id_1633_ca.log	Energy: -413402.3924256
C         -3.29661       -1.49425        0.94789
H         -4.22491       -2.06909        0.90321
H         -3.28713       -0.94509        1.89167
H         -2.45688       -2.19821        0.93248
C         -3.24036       -0.57683       -0.26089
H         -3.96244        0.23836       -0.16859
C         -3.43937       -1.32279       -1.56854
H         -4.43614       -1.76957       -1.57659
H         -2.69993       -2.12443       -1.66925
H         -3.35475       -0.64964       -2.42692
N         -1.89054        0.10357       -0.32455
H         -1.16585       -0.62372       -0.41401
C         -1.56807        0.99117        0.83251
H         -2.38194        1.71314        0.91828
H         -1.54524        0.37061        1.72728
C         -0.24239        1.73413        0.65033
C          0.93371        0.80788        0.36596
C          1.88127        1.14160       -0.60411
H          1.78384        2.06447       -1.16569
C          2.97143        0.31241       -0.85732
H          3.71255        0.56191       -1.60870
C          3.10062       -0.85200       -0.12055
C          2.18693       -1.21460        0.85716
H          2.32937       -2.13316        1.41575
C          1.10316       -0.37639        1.09594
H          0.39323       -0.65487        1.86990
F          4.15018       -1.65971       -0.35785
O         -0.36465        2.77811       -0.29783
H         -0.32202        2.41276       -1.19675
H         -0.06860        2.23960        1.60671
H         -1.85577        0.65260       -1.19402
