28
id_1752_ca.log	Energy: -256173.5546446
C         -2.56057        0.70516        0.25312
H         -3.45797        1.22170       -0.10384
H         -2.60904        0.69882        1.35054
C         -2.54233       -0.73795       -0.25594
H         -2.58710       -0.73365       -1.35341
H         -3.42617       -1.27859        0.09871
C         -1.27152       -1.46563        0.18727
H         -1.25018       -2.48511       -0.21479
H         -1.25918       -1.54866        1.28326
C         -0.02391       -0.70220       -0.26199
C          1.23409       -1.42945        0.18524
H          1.29290       -1.49620        1.27520
H          1.30508       -2.43129       -0.24155
N          2.45201       -0.67272       -0.25687
H          2.47286       -0.64038       -1.28370
C          2.48412        0.73108        0.27434
H          3.39935        1.19257       -0.09664
H          2.53809        0.64268        1.36177
C          1.23388        1.47044       -0.17000
H          1.24314        1.57527       -1.26330
H          1.26548        2.47880        0.25484
C         -0.03612        0.73970        0.26700
C         -1.30521        1.46127       -0.18649
H         -1.31022        2.48270        0.21176
H         -1.29173        1.54336       -1.28298
H         -0.01886       -0.65890       -1.36324
H         -0.04054        0.68532        1.36775
H          3.29538       -1.17380        0.04245
