19
id_1926_cb.log	Energy: -276017.5728118
C         -1.37987        1.22055       -0.36892
H         -2.10754        2.03728       -0.30108
H         -0.76640        1.40038       -1.26074
C         -0.49271        1.19445        0.87889
H         -1.13687        1.13543        1.76709
H          0.08786        2.11786        0.96279
C          0.43213       -0.02831        0.88132
C         -0.39953       -1.29406        0.66819
H         -1.08372       -1.40519        1.52773
H          0.24356       -2.17583        0.63914
N         -1.14782       -1.20785       -0.59153
H         -1.66474       -2.07734       -0.70939
C         -2.11449       -0.10475       -0.53034
H         -2.81039       -0.23476        0.31822
H         -2.70928       -0.10712       -1.44844
C          1.60348        0.06558       -0.11800
O          1.89602        1.19194       -0.61042
O          2.25108       -0.99754       -0.35069
H          0.91135       -0.11177        1.86742
