22
id_1944_ca.log	Energy: -266843.0242561
C          1.17688       -2.48732        0.01052
H          0.51196       -3.34961        0.10656
H          1.88878       -2.50746        0.84352
H          1.75909       -2.60831       -0.91066
C          0.38846       -1.20201       -0.00384
C         -1.00686       -1.25567        0.00051
H         -1.52251       -2.21275        0.00918
C         -1.74928       -0.07861       -0.00282
C         -1.10816        1.15587       -0.00143
H         -1.70018        2.06897        0.00573
C          0.28957        1.22399       -0.00494
C          1.05065        0.04142       -0.01455
C          2.55949        0.08437       -0.00839
H          2.94091        1.05012       -0.34638
H          2.98129       -0.68586       -0.66147
H          2.95930       -0.09453        0.99869
C          0.95188        2.58019        0.01143
H          1.54092        2.75004       -0.89702
H          1.63512        2.68055        0.86196
H          0.20292        3.37334        0.08111
O         -3.12361       -0.19147       -0.00118
H         -3.52456        0.69380       -0.00073
