29
id_176_cb.log	Energy: -421055.0174286
N          0.18060       -2.34658       -1.28611
H          1.14660       -2.65147       -1.44616
C          0.17463       -1.28792       -0.56683
C          1.41144       -0.61151       -0.07148
C          1.42255        0.01787        1.17822
H          0.51620        0.04114        1.77703
C          2.59061        0.59927        1.66209
H          2.59183        1.07395        2.63828
C          3.75391        0.57552        0.89397
H          4.66255        1.03669        1.26825
C          3.74529       -0.03479       -0.35920
H          4.64409       -0.04356       -0.96772
C          2.58103       -0.62787       -0.83846
H          2.57617       -1.08525       -1.82425
C         -1.14819       -0.74355       -0.14085
C         -2.09688       -1.60458        0.40884
H         -1.83918       -2.65395        0.51555
C         -3.33855       -1.13567        0.83189
H         -4.06067       -1.81775        1.26771
C         -3.63508        0.21595        0.69363
H         -4.59667        0.60008        1.01998
C         -2.71114        1.09693        0.13187
H         -2.96822        2.14332        0.01907
C         -1.46937        0.61947       -0.29032
O         -0.52526        1.39802       -0.88617
C         -0.80641        2.78442       -1.02690
H         -1.68328        2.94467       -1.66244
H          0.07302        3.21934       -1.50111
H         -0.96763        3.25343       -0.05090
