23
id_1280_ca.log	Energy: -301089.5283961
C          2.95140       -0.57244       -0.07594
H          3.95370       -0.97940       -0.16779
C          2.77656        0.80731        0.05205
H          3.64326        1.46094        0.05828
C          1.49646        1.35143        0.16707
H          1.35121        2.42356        0.26267
C          0.40937        0.48827        0.14769
C          0.57785       -0.89144        0.01359
C          1.85256       -1.43388       -0.09727
H          1.99242       -2.50531       -0.20851
C         -0.76347       -1.59037        0.01439
H         -0.99623       -1.98034        1.01432
H         -0.83247       -2.41567       -0.69749
C         -1.70157       -0.42879       -0.33140
C         -1.05472        0.82757        0.27541
O         -1.38689        2.02170       -0.40051
H         -2.22484        2.34828       -0.03651
N         -3.09207       -0.63343        0.16877
H         -3.09917       -0.78297        1.18593
H         -3.53054       -1.45131       -0.27181
H         -1.77493       -0.29168       -1.41210
H         -1.33069        0.90301        1.33864
H         -3.67876        0.18519       -0.03652
