21
id_1543_ca.log	Energy: -370470.9235664
C          0.60061        2.56812       -0.13695
H         -0.09702        3.33300       -0.48452
H          1.44902        2.53178       -0.82594
H          0.98318        2.86953        0.84237
C         -0.11564        1.24480       -0.05212
C         -1.50575        1.23210       -0.06897
H         -2.05699        2.16528       -0.13684
C         -2.20824        0.02867       -0.00046
C         -1.53370       -1.19040        0.06674
H         -2.10086       -2.11532        0.13307
C         -0.14223       -1.23313        0.05018
C          0.53438       -0.00223       -0.00048
N          1.98950       -0.01829        0.00121
O          2.56752       -0.85249       -0.68443
O          2.58347        0.80340        0.68832
C          0.54368       -2.57241        0.13391
H          1.39446       -2.55484        0.82066
H          0.91697       -2.88234       -0.84637
H         -0.17011       -3.32123        0.48349
O         -3.56695        0.10356       -0.00273
H         -3.95620       -0.78664        0.04525
