30
id_1254_ca.log	Energy: -303963.7087726
C          4.79739       -1.03689        0.43117
H          4.67038       -1.12299        1.50937
H          5.38816       -0.15565        0.18481
H          5.26267       -1.93452        0.02796
N          3.45157       -0.87990       -0.18404
H          2.88446       -1.71246        0.01500
C          2.71652        0.33357        0.29316
H          2.63717        0.24013        1.37866
H          3.34847        1.19183        0.05415
C          1.35347        0.43080       -0.36601
H          1.47611        0.47874       -1.45573
H          0.77685       -0.47461       -0.14045
C          0.60154        1.66715        0.12215
H          0.45778        1.60268        1.20821
H          1.20856        2.55979       -0.06917
C         -0.76261        1.83769       -0.56195
H         -0.61298        1.91895       -1.64474
H         -1.20868        2.77889       -0.22261
C         -1.70574        0.69659       -0.26543
C         -1.92784       -0.32083       -1.19776
H         -1.43749       -0.26868       -2.16723
C         -2.76675       -1.39419       -0.89940
H         -2.92774       -2.17475       -1.63711
C         -3.39761       -1.46406        0.34078
H         -4.05309       -2.29738        0.57457
C         -3.18414       -0.45464        1.27958
H         -3.67543       -0.49896        2.24709
C         -2.34438        0.61431        0.97707
H         -2.18287        1.40143        1.71052
H          3.54763       -0.83021       -1.20507
