13
id_1513_ca.log	Energy: -255120.7189011
C          1.85528        0.75006       -0.00000
H          2.77391        1.32838       -0.00000
C          1.90693       -0.64448        0.00000
H          2.86139       -1.16041        0.00001
C          0.72212       -1.38259        0.00000
H          0.71847       -2.46824        0.00001
C         -0.48051       -0.70161       -0.00000
C         -0.55693        0.68924        0.00000
C          0.63052        1.41677       -0.00000
H          0.57667        2.50147       -0.00000
O         -1.75378        1.35071       -0.00000
H         -2.49140        0.71565        0.00005
F         -1.65259       -1.38742       -0.00001
