23
id_155_ca.log	Energy: -358271.2525866
C          2.20311        1.81138       -0.05318
H          1.83229        2.59312        0.61394
H          2.24991        2.23081       -1.06418
H          3.22172        1.57438        0.25720
C          1.28708        0.61634       -0.01922
C         -0.11122        0.79973       -0.05947
C         -0.90325       -0.35031       -0.00043
C         -0.40104       -1.64486        0.04642
H         -1.07460       -2.49238        0.08023
C          0.97067       -1.81662        0.06811
H          1.40684       -2.80895        0.11182
C          1.77607       -0.68738        0.03813
N          3.23147       -0.89730        0.05780
H          3.69050       -0.46145       -0.75500
H          3.46325       -1.89975        0.03904
N         -2.36598       -0.24386        0.03646
O         -2.86383        0.68681        0.64718
O         -3.01306       -1.11451       -0.52248
C         -0.66863        2.19073       -0.20708
H         -1.64832        2.18903       -0.68319
H          0.00482        2.79959       -0.81222
H         -0.77248        2.67111        0.77191
H          3.66608       -0.49989        0.90335
