19
id_1724_ca.log	Energy: -1863581.4049810
C          0.20791       -2.53731       -0.00000
H         -0.54968       -3.32161        0.00018
H          0.84233       -2.64848        0.88441
H          0.84201       -2.64859       -0.88463
C         -0.41747       -1.18656        0.00001
C          0.26732        0.00404       -0.00000
C         -0.45371        1.22257       -0.00001
N         -1.77864        1.23998       -0.00001
C         -2.43820        0.07403       -0.00000
N         -1.77246       -1.11013        0.00002
N         -3.76119        0.06620       -0.00000
H         -4.29330       -0.79641       -0.00004
H         -4.25161        0.95244       -0.00006
C          0.25668        2.53372        0.00001
H          0.90136        2.61143       -0.88163
H          0.90116        2.61150        0.88179
H         -0.46441        3.34967       -0.00010
Br         2.14370       -0.00469       -0.00000
H         -2.30657       -1.98105        0.00003
