18
id_1460_cb.log	Energy: -249846.2343564
C          2.78334        0.49296        0.88561
H          3.66611        1.13620        0.81997
H          3.02238       -0.35310        1.53742
H          1.97371        1.06608        1.34714
C          2.37634        0.00430       -0.49896
H          3.18879       -0.56779       -0.95271
H          2.16658        0.84890       -1.15713
N          1.20434       -0.86144       -0.48285
H          1.35362       -1.80193       -0.13629
C         -0.04550       -0.38291       -0.22226
N         -0.96774       -1.30309        0.13346
C         -2.20179       -0.84731        0.32703
H         -2.94543       -1.58709        0.61446
C         -2.55214        0.49118        0.18296
H         -3.56201        0.84373        0.34696
C         -1.51938        1.34485       -0.17535
H         -1.69838        2.41015       -0.30314
N         -0.26668        0.93403       -0.38073
