21
id_1487_cb.log	Energy: -323957.2530638
C         -3.68418        0.29159        0.00000
H         -3.85821        1.36538       -0.00000
H         -4.11597       -0.16111        0.89309
H         -4.11597       -0.16111       -0.89309
N         -2.23253        0.04269        0.00000
C         -1.80733       -1.26450        0.00000
H         -2.59082       -2.01216        0.00000
C         -0.47278       -1.54705       -0.00000
H         -0.15063       -2.58247       -0.00000
C          0.48630       -0.50855       -0.00000
C          0.01954        0.83926       -0.00000
C         -1.37407        1.05165       -0.00000
H         -1.79463        2.05214       -0.00000
C          0.91948        1.92908       -0.00000
H          0.54244        2.94661       -0.00000
C          2.27210        1.64481        0.00000
H          2.98854        2.46271        0.00000
C          2.75895        0.32727        0.00000
H          3.83206        0.15235        0.00000
C          1.91124       -0.80124       -0.00000
O          2.33942       -2.01689       -0.00000
