20
id_1079_cb.log	Energy: -1843138.3038156
C         -1.84862       -2.34331       -0.67043
H         -2.22731       -1.89486       -1.59159
H         -2.66827       -2.39540        0.06285
H         -1.52998       -3.36613       -0.88747
N         -0.69209       -1.59960       -0.18512
C         -0.21674       -2.20473        1.06414
H          0.65932       -1.67903        1.44292
H          0.06452       -3.24333        0.87100
H         -1.00026       -2.19204        1.83747
C         -0.89125       -0.20083       -0.06679
C         -2.16884        0.37679       -0.03244
H         -3.04134       -0.26469       -0.08243
C         -2.34899        1.75341        0.06970
H         -3.35601        2.15785        0.09143
C         -1.25039        2.60113        0.15554
H         -1.37925        3.67496        0.23971
C          0.03107        2.05821        0.11935
H          0.90396        2.70032        0.16605
C          0.19981        0.68477       -0.00234
Br         1.98237        0.03848       -0.13356
