26
id_1394_cb.log	Energy: -312983.1633216
C         -2.98226        1.11066        0.43346
H         -3.49284        1.99609        0.79939
C         -3.56302        0.30302       -0.53777
H         -4.53735        0.52907       -0.95677
C         -2.85983       -0.81935       -0.96471
H         -3.28806       -1.47433       -1.71951
N         -1.65732       -1.16856       -0.49740
C         -1.10003       -0.38442        0.43859
C         -1.73081        0.75960        0.92924
H         -1.23905        1.36052        1.68823
C          0.26656       -0.78361        0.93845
H          0.28228       -1.86650        1.09812
H          0.45262       -0.29710        1.91283
N          1.32325       -0.44733       -0.01170
C          2.63207       -0.87508        0.49389
H          2.75394       -0.56770        1.54859
H          2.72973       -1.96345        0.44823
C          3.63279       -0.12600       -0.39058
H          4.55430        0.09714        0.15143
H          3.89726       -0.72753       -1.26386
C          2.86686        1.15118       -0.82017
H          2.76715        1.19293       -1.90763
H          3.36413        2.06837       -0.49734
C          1.49179        1.00310       -0.15841
H          0.67812        1.43905       -0.74448
H          1.49154        1.49003        0.83454
