49
id_19_cb.log	Energy: -556696.6313933
C          2.22989        4.63663       -0.21709
H          3.14482        4.66881       -0.81878
H          1.37709        4.64649       -0.90563
H          2.18904        5.55099        0.38243
C          2.19542        3.38848        0.65861
H          3.02037        3.41346        1.38157
H          1.26781        3.37979        1.24607
C          2.28160        2.10592       -0.16645
H          1.51680        2.12537       -0.95369
H          3.25454        2.06632       -0.67138
C          2.06298        0.86468        0.68876
H          2.83171        0.80368        1.47975
H          1.10199        0.97437        1.20432
N          2.03734       -0.38283       -0.09296
C          3.42003       -0.79226       -0.38797
H          3.98022       -0.91179        0.55829
H          3.90092        0.01444       -0.94762
C          3.49454       -2.09473       -1.17128
H          4.54589       -2.33706       -1.35630
H          3.00779       -1.96605       -2.14576
C          2.80237       -3.20778       -0.39135
H          2.80261       -4.14587       -0.95515
H          3.34334       -3.38714        0.54701
C          1.37194       -2.78124       -0.08208
H          0.81231       -2.68028       -1.02092
H          0.85353       -3.52139        0.53611
C          1.33452       -1.42972        0.65170
C         -0.13920       -1.09500        0.85517
O         -0.75170       -1.51477        1.83756
N         -0.72109       -0.40015       -0.15167
H         -0.08018        0.03095       -0.81381
C         -2.09618       -0.04039       -0.18582
C         -2.42434        1.32283       -0.28487
C         -3.77015        1.68190       -0.33683
H         -4.03210        2.73377       -0.41083
C         -4.76883        0.71232       -0.28649
H         -5.81371        1.00490       -0.32209
C         -4.42382       -0.63129       -0.20594
H         -5.19918       -1.39268       -0.19051
C         -3.08544       -1.03579       -0.16694
C         -2.74855       -2.50203       -0.13584
H         -1.81717       -2.70906       -0.67205
H         -2.61653       -2.85722        0.89071
H         -3.55231       -3.08198       -0.59640
C         -1.34171        2.36768       -0.33954
H         -0.65419        2.27144        0.50815
H         -1.77439        3.37076       -0.32256
H         -0.74469        2.27292       -1.25446
H          1.76310       -1.56006        1.66101
