17
id_1172_cb.log	Energy: -205053.5898858
C         -2.53493       -0.95245        0.00475
H         -2.88824       -1.09289        1.03273
H         -2.45941       -1.94171       -0.45489
H         -3.29866       -0.37906       -0.52805
C         -1.20765       -0.23792       -0.01152
C         -1.15128        1.15996       -0.01320
H         -2.07172        1.73699       -0.02799
C          0.08437        1.80384       -0.00201
H          0.12778        2.88941       -0.00987
C          1.26947        1.07598        0.01039
H          2.23139        1.58180        0.01454
C          1.22900       -0.32523        0.01189
C         -0.01787       -0.96549       -0.00209
H         -0.05135       -2.05341       -0.00808
N          2.40739       -1.07151        0.08666
H          2.32016       -2.00119       -0.31042
H          3.21163       -0.59158       -0.30392
