34
id_1614_ca.log	Energy: -500309.0516111
C          3.14298        1.30716       -1.75349
H          2.22779        1.86439       -1.97904
H          3.28036        0.52590       -2.50827
H          3.98975        1.99555       -1.80931
C          3.08372        0.70732       -0.35314
C          4.32576       -0.11864       -0.05275
H          4.42092       -0.95325       -0.75539
H          4.31936       -0.50707        0.96917
H          5.20159        0.52609       -0.16437
C          2.84673        1.79141        0.69037
H          3.64672        2.53130        0.60168
H          2.86796        1.39809        1.70998
H          1.89041        2.29726        0.51761
N          1.87051       -0.22173       -0.36299
H          1.04204        0.36326       -0.54775
C          1.62679       -1.04726        0.85877
H          2.41138       -1.80178        0.91158
H          1.69677       -0.39369        1.72740
C          0.26453       -1.74505        0.81378
C         -0.88937       -0.77579        0.58421
C         -0.94944        0.44097        1.27345
H         -0.17403        0.71159        1.98385
C         -2.00709        1.32501        1.07223
H         -2.06638        2.27098        1.59922
C         -3.00592        0.98572        0.17828
C         -2.95451       -0.22105       -0.50484
C         -1.90920       -1.10506       -0.31182
H         -1.91176       -2.04193       -0.85762
F         -3.94402       -0.51390       -1.35929
F         -4.03912        1.80784       -0.04728
O          0.26410       -2.82570       -0.09862
H          0.24239       -2.48527       -1.00827
H          0.14400       -2.20521        1.80018
H          1.96264       -0.85242       -1.17201
