15
id_1916_cb.log	Energy: -404018.9073928
C          0.39710        1.22585       -0.01287
H         -0.13032        2.17607       -0.01568
C          1.78347        1.21269       -0.00344
H          2.33523        2.14971       -0.00039
C          2.52681       -0.00620        0.00241
C          1.75610       -1.21122       -0.00374
H          2.28813       -2.15960       -0.00076
C          0.37304       -1.19160       -0.01381
H         -0.17992       -2.12908       -0.01622
C         -0.32288        0.02619       -0.02037
C         -1.80587        0.00928       -0.00143
F         -2.32170       -0.48516        1.15714
F         -2.34061       -0.77251       -0.97428
F         -2.35423        1.23126       -0.15546
O          3.82364       -0.02367        0.01325
