17
id_1766_ca.log	Energy: -1922389.5904472
C          1.24913       -1.38492        0.00792
H          1.83819       -2.29364        0.00906
C         -0.13844       -1.43772        0.00805
H         -0.64680       -2.39456        0.00874
C         -0.87291       -0.25757        0.00534
C         -0.22031        0.97548        0.00285
C          1.16031        1.05031        0.00083
H          1.67109        2.00753       -0.00359
C          1.86562       -0.14334        0.00303
N          3.33010       -0.07998       -0.00321
O          3.85315        1.02027       -0.01406
O          3.94372       -1.13183        0.00230
N         -0.98986        2.21890        0.01041
H         -1.70723        2.24400       -0.72814
H         -0.37446        3.03047       -0.15142
Br        -2.75251       -0.33918       -0.00495
H         -1.46012        2.38416        0.91405
