19
id_1111_ca.log	Energy: -624200.9455129
C         -0.29460        2.70539        0.10855
H         -0.40879        3.78485        0.11058
C          0.96432        2.13284        0.27397
H          1.83738        2.76515        0.40851
C          1.12567        0.74777        0.26992
C         -0.00696       -0.07302        0.11601
C         -1.26197        0.51646       -0.06070
C         -1.41440        1.89913       -0.07072
H         -2.39721        2.33343       -0.22195
Cl        -2.67999       -0.46203       -0.35001
C          0.18329       -1.55649        0.12960
O          0.98808       -2.13218       -0.58159
O         -0.57610       -2.18440        1.02197
H         -0.41171       -3.14771        0.96898
C          2.51218        0.15598        0.41748
H          2.50118       -0.70281        1.09904
H          3.17898        0.91224        0.83536
O          3.07075       -0.21860       -0.83931
H          2.55284       -0.97741       -1.16356
