18
id_1775_cb.log	Energy: -743282.3152925
C          2.88822       -1.76458       -0.00075
H          3.97790       -1.69440       -0.00275
H          2.56574       -2.29688       -0.89786
H          2.56948       -2.30166        0.89482
S          2.29394       -0.05550        0.00445
C          0.53165       -0.28394       -0.00047
C         -0.09705       -1.53434        0.00134
H          0.49749       -2.44092        0.00849
C         -1.48049       -1.65419       -0.00289
H         -1.93408       -2.64122       -0.00084
C         -2.30254       -0.52053       -0.00923
C         -1.69089        0.73886       -0.00688
H         -2.29652        1.63992       -0.00773
C         -0.30756        0.83593       -0.00342
Cl         0.39500        2.44171        0.00182
N         -3.68867       -0.63582       -0.08224
H         -4.18353        0.16286        0.30089
H         -4.04190       -1.50145        0.31232
