21
id_1867_ca.log	Energy: -323628.7173532
C          0.38701       -1.01798        0.71395
H         -0.13949       -1.89012        1.08992
C          1.72832       -1.12498        0.36167
H          2.25919       -2.06740        0.45738
C          2.37963        0.00428       -0.10920
C          1.74308        1.22901       -0.23802
H          2.28438        2.09604       -0.60426
C          0.40097        1.31757        0.11757
H         -0.11501        2.26885        0.02849
C         -0.28689        0.19935        0.59452
C         -1.74776        0.30839        0.95807
H         -2.00040        1.31551        1.29303
H         -1.98780       -0.39092        1.76774
C         -2.68105       -0.03004       -0.18204
O         -3.70112        0.57521       -0.43514
O         -2.28662       -1.10697       -0.87365
H         -2.95225       -1.28519       -1.56587
N          3.79262       -0.10214       -0.49904
H          4.32622        0.73156       -0.22027
H          4.24211       -0.91833       -0.06366
H          3.89673       -0.20449       -1.51798
