33
id_1601_ca.log	Energy: -328624.8992872
C          3.40456        0.06684       -0.71731
H          3.01249        0.99159       -1.15425
H          3.92453       -0.48059       -1.51048
H          4.14577        0.34138        0.04385
C          2.30184       -0.79256       -0.10029
H          1.54202       -0.98848       -0.87080
C          2.86389       -2.13823        0.35507
H          3.30520       -2.68685       -0.48341
H          2.08328       -2.76538        0.79905
H          3.64634       -1.98986        1.10936
C          1.62492       -0.09253        1.08484
H          0.82013       -0.73449        1.46526
H          2.35745        0.00623        1.89663
C          1.05856        1.29835        0.79268
H          1.86829        2.00169        0.56501
H          0.54705        1.67630        1.68633
C          0.07714        1.30578       -0.37817
C         -1.09950        0.37099       -0.21939
C         -1.93092        0.44897        0.90296
H         -1.74317        1.19676        1.67049
C         -3.00345       -0.42678        1.04183
H         -3.64560       -0.35840        1.91423
C         -3.24896       -1.39294        0.06601
H         -4.08307       -2.07844        0.17863
C         -2.42281       -1.47626       -1.05179
H         -2.60963       -2.22549       -1.81454
C         -1.35306       -0.59412       -1.19474
H         -0.70860       -0.65354       -2.06813
N         -0.43261        2.71646       -0.54853
H         -0.94368        3.02914        0.28631
H         -1.06779        2.78715       -1.35212
H          0.59680        1.08222       -1.31283
H          0.34701        3.36880       -0.69906
