24
id_1971_ca.log	Energy: -337912.5827267
C          2.94765       -0.42991        1.29405
H          4.04178       -0.47352        1.31068
H          2.57231       -1.45772        1.35391
H          2.61201        0.11120        2.18479
C          2.47834        0.26444        0.01054
H          2.92467        1.26426       -0.01502
C          2.95877       -0.49932       -1.22893
H          2.62797       -0.00987       -2.15086
H          2.58599       -1.52985       -1.23353
H          4.05307       -0.54082       -1.23564
C          0.96837        0.45624       -0.00283
C          0.47635        1.73841       -0.03597
H          1.20844        2.54201       -0.04707
C         -0.87774        2.15481       -0.05724
H         -1.01604        3.23384       -0.07575
C         -2.03959        1.43125       -0.06329
H         -2.96704        1.99871       -0.08669
C         -2.27156        0.01142       -0.04902
O         -3.44004       -0.43272       -0.07706
C         -1.16113       -0.95661        0.00497
C          0.19012       -0.73813        0.02210
H          0.77564       -1.65598        0.05804
O         -1.63862       -2.22553        0.03423
H         -0.90658       -2.86657        0.06368
