26
id_1089_cb.log	Energy: -279023.8676389
C         -1.99151       -1.70225       -0.00553
H         -3.06881       -1.89845       -0.00314
H         -1.56041       -2.18382        0.87874
H         -1.56589       -2.17506       -0.89714
C         -1.75171       -0.19043        0.00120
C         -2.41901        0.41051       -1.24610
H         -3.48732        0.16612       -1.25457
H         -1.96859        0.00816       -2.16016
H         -2.32204        1.50041       -1.26898
C         -2.41045        0.39808        1.25891
H         -3.47857        0.15316        1.27255
H         -2.31376        1.48775        1.29164
H         -1.95346       -0.01289        2.16586
C         -0.26152        0.16492       -0.00275
C          0.12569        1.51470        0.00381
H         -0.62633        2.29840        0.01110
C          1.47331        1.85841        0.00459
H          1.76169        2.90586        0.01409
C          2.46298        0.87956       -0.00284
H          3.51515        1.15157       -0.00066
C          2.09841       -0.47041       -0.01174
C          0.73548       -0.81002       -0.01037
H          0.47805       -1.86506       -0.01485
N          3.07039       -1.47241       -0.08505
H          2.76573       -2.35439        0.31400
H          3.96168       -1.19324        0.31183
