17
id_1459_cb.log	Energy: -309228.7056797
C         -3.57413        1.22805        0.00000
H         -3.56604        1.86503        0.88970
H         -4.50102        0.64691        0.00000
H         -3.56604        1.86503       -0.88970
C         -2.39002        0.28766        0.00000
H         -2.38414       -0.35110       -0.88792
H         -2.38414       -0.35110        0.88792
O         -1.20691        1.10306        0.00000
C          0.00000        0.49171        0.00000
C          1.12455        1.33225        0.00000
H          1.03764        2.41132        0.00000
C          2.33526        0.66710        0.00000
H          3.26244        1.23736        0.00000
N          2.46783       -0.66343        0.00000
C          1.31740       -1.40215        0.00000
N          0.06747       -0.82308        0.00000
O          1.39139       -2.67127        0.00000
