29
id_1254_cb.log	Energy: -303668.9820680
C          4.76688       -1.07524        0.40552
H          4.68606       -1.06487        1.50393
H          5.43586       -0.25896        0.11569
H          5.23451       -2.01597        0.10513
N          3.48385       -0.91602       -0.27259
H          2.90261       -1.71256       -0.01092
C          2.79578        0.27979        0.21253
H          2.71904        0.28836        1.31485
H          3.40117        1.15339       -0.06098
C          1.40464        0.41252       -0.38799
H          1.48366        0.46936       -1.48164
H          0.82868       -0.49461       -0.15949
C          0.66418        1.63915        0.13815
H          0.53472        1.55173        1.22513
H          1.27508        2.53367       -0.03652
C         -0.70943        1.84694       -0.51751
H         -0.57605        1.96049       -1.59974
H         -1.14322        2.78101       -0.14319
C         -1.66051        0.70681       -0.24429
C         -1.89814       -0.28398       -1.20130
H         -1.41374       -0.21040       -2.17238
C         -2.74408       -1.35777       -0.92575
H         -2.91662       -2.11702       -1.68287
C         -3.36720       -1.45556        0.31659
H         -4.02818       -2.28930        0.53281
C         -3.13864       -0.47318        1.28005
H         -3.62344       -0.53917        2.24965
C         -2.29161        0.59635        0.99994
H         -2.11831        1.36207        1.75314
