18
id_1791_cb.log	Energy: -468365.7855284
C          0.00000       -2.42616        1.39329
H         -0.00000       -3.51862        1.40232
H         -0.89653       -2.06120        1.89968
H          0.89654       -2.06120        1.89967
S         -0.00000       -1.90790       -0.35069
C         -0.00000       -0.14559       -0.12963
C          1.18958        0.60080       -0.04233
C          1.20514        1.97795        0.10740
H          2.14342        2.51872        0.16966
C          0.00000        2.69038        0.18364
C         -1.20514        1.97795        0.10740
H         -2.14342        2.51872        0.16966
C         -1.18958        0.60080       -0.04233
I         -3.10315       -0.33934       -0.11630
N          0.00000        4.05365        0.39134
H         -0.84293        4.53365        0.09688
H          0.84293        4.53365        0.09688
I          3.10315       -0.33934       -0.11630
