15
id_1399_ca.log	Energy: -321193.7642143
C         -0.04841       -1.17846        0.00001
H          0.47353       -2.12818        0.00001
C         -1.42912       -1.18167        0.00001
H         -2.03625       -2.07771        0.00002
N         -2.12656       -0.01846        0.00000
O         -3.42634       -0.04370        0.00000
C         -1.47494        1.17203       -0.00001
H         -2.11710        2.04340       -0.00002
C         -0.09625        1.22068       -0.00001
H          0.39599        2.18686       -0.00002
C          0.63816        0.03557       -0.00000
C          2.12410        0.10519        0.00000
O          2.75007        1.14806        0.00002
O          2.70312       -1.09788       -0.00002
H          3.67387       -0.98706       -0.00001
