17
id_1530_ca.log	Energy: -309375.4342240
C          2.67894       -0.25882       -0.00000
H          3.74521       -0.45683       -0.00000
C          1.75870       -1.27553        0.00000
H          2.06054       -2.31958        0.00000
C          0.38096       -0.94359        0.00000
C         -0.66612       -1.90168       -0.00000
H         -0.41570       -2.96014        0.00001
N         -1.94020       -1.57542       -0.00000
C         -2.27414       -0.25553       -0.00000
H         -3.33290       -0.01540       -0.00001
C         -1.34463        0.75600        0.00000
C          0.03773        0.42514        0.00000
N          0.95204        1.43290       -0.00000
C          2.22255        1.08393       -0.00000
H          2.94777        1.89376       -0.00001
O         -1.73921        2.05748        0.00001
H         -0.93793        2.61641       -0.00001
