45
id_1351_ca.log	Energy: -973223.4136991
C         -1.84456        0.44350       -1.71731
H         -0.90439        0.90791       -1.40683
H         -1.71237        0.08303       -2.74122
H         -2.62630        1.20673       -1.73002
C         -2.19857       -0.75702       -0.85273
C         -3.40569       -1.54642       -1.35845
H         -3.19482       -1.83608       -2.39206
H         -3.49225       -2.47012       -0.77231
C         -4.70664       -0.75559       -1.25207
H         -5.54376       -1.36761       -1.59913
H         -4.66710        0.13381       -1.89155
C         -4.92200       -0.34559        0.20098
H         -5.80581        0.28870        0.31354
H         -5.08074       -1.23942        0.81714
C         -3.73458        0.42624        0.75753
H         -3.58704        1.38361        0.25246
H         -3.86808        0.60723        1.82255
N         -2.45391       -0.35195        0.59731
C         -1.26931        0.35935        1.23902
C         -1.52160        0.55797        2.73381
H         -0.58796        0.88066        3.20011
H         -1.82567       -0.38453        3.20182
H         -2.27626        1.32120        2.93031
C         -0.04031       -0.47125        1.01874
H         -0.13301       -1.51152        1.33441
C          1.13942       -0.04601        0.52629
C          2.25168       -0.98863        0.31022
C          3.59749       -0.73103        0.36388
H          3.99977        0.25096        0.58658
C          4.39989       -1.88510        0.12635
H          5.48341       -1.88194        0.13603
C          3.65345       -3.00051       -0.11564
H          3.99593       -4.00389       -0.33266
S          1.96450       -2.66422       -0.05897
C          1.39521        1.36699        0.18559
C          1.08518        2.48671        0.91332
H          0.63668        2.44203        1.90006
C          1.44150        3.70112        0.25587
H          1.28312        4.68674        0.67712
C          2.01670        3.48575       -0.96149
H          2.38462        4.21864       -1.66769
S          2.14753        1.80687       -1.32283
H         -1.33787       -1.42751       -0.80397
H         -1.19909        1.32406        0.73360
H         -2.57955       -1.23422        1.11587
