36
id_1063_ca.log	Energy: -463980.4007512
C         -3.90427        1.37734       -0.67117
H         -3.77316        1.49877       -1.75155
H         -3.68940        2.33812       -0.19155
H         -4.95633        1.13630       -0.48458
Si        -2.79258        0.02814       -0.00169
C         -2.92998       -0.14079        1.86186
H         -3.94736       -0.42689        2.15030
H         -2.69015        0.80245        2.36439
H         -2.25019       -0.91108        2.24389
C         -3.09226       -1.62164       -0.84319
H         -2.96629       -1.54138       -1.92819
H         -4.11068       -1.97456       -0.64702
H         -2.40191       -2.39084       -0.47739
C         -0.99940        0.56572       -0.40025
H         -0.84194        0.64455       -1.48036
H         -0.78813        1.54011        0.04623
N          0.02873       -0.39394        0.11608
H          0.00593       -0.39726        1.14480
C          1.45094       -0.14975       -0.32498
H          1.41214       -0.14135       -1.41969
C          1.95425        1.18989        0.19660
H          1.34426        2.00997       -0.19268
H          1.86762        1.19481        1.29226
C          3.41814        1.39014       -0.20974
H          3.47743        1.46130       -1.30378
H          3.77701        2.34208        0.19322
C          4.29717        0.23453        0.26913
H          5.33076        0.38616       -0.05869
H          4.30444        0.21607        1.36716
C          3.76783       -1.10176       -0.25286
H          4.37608       -1.93185        0.11893
H          3.83498       -1.11685       -1.34858
C          2.30994       -1.31170        0.16255
H          2.24264       -1.36273        1.25810
H          1.92178       -2.25393       -0.24051
H         -0.21850       -1.35027       -0.17125
