24
id_1547_ca.log	Energy: -395127.9663300
C          1.46413        2.48714        0.08467
H          1.90991        2.66908       -0.89784
H          2.27768        2.25885        0.78001
H          0.98024        3.40884        0.41590
C          0.44125        1.38171        0.02499
C         -0.92261        1.68270        0.04770
H         -1.22323        2.72634        0.10057
C         -1.91081        0.70250        0.01966
C         -1.51676       -0.64174       -0.02792
C         -0.17173       -1.02391       -0.05775
C          0.75955        0.02218       -0.01502
N          2.17923       -0.33819        0.02514
O          2.93985        0.20785       -0.75962
O          2.54247       -1.15933        0.85521
C          0.19324       -2.48006       -0.18920
H          1.21951       -2.62056       -0.52900
H         -0.45714       -2.96617       -0.92420
H          0.08040       -3.00498        0.76635
O         -2.53125       -1.56368       -0.05396
H         -2.18660       -2.46812        0.02840
C         -3.37146        1.04987        0.04545
H         -3.88139        0.66409       -0.84405
H         -3.50713        2.13316        0.08205
H         -3.86409        0.60572        0.91722
