32
id_1410_ca.log	Energy: -375048.3912970
C         -1.98052        2.06486       -0.69961
H         -2.61144        2.49191       -1.47897
H         -0.92976        2.14615       -0.97701
H         -2.16471        2.55952        0.25506
N         -2.32639        0.63138       -0.54758
C         -3.77258        0.38329       -0.23359
H         -4.05214        1.13460        0.50724
H         -4.35480        0.53187       -1.14234
C         -3.81185       -1.04061        0.33999
H         -4.44020       -1.05834        1.23130
H         -4.23036       -1.74161       -0.38328
C         -2.34405       -1.39787        0.66647
H         -1.95039       -2.11265       -0.06091
H         -2.22018       -1.82643        1.66182
C         -1.57538       -0.08019        0.56281
C         -0.09973       -0.15142        0.28776
C          0.79123        0.56693        1.08110
H          0.40951        1.16919        1.90137
C          2.16630        0.52692        0.85103
H          2.83246        1.09220        1.49162
C          2.65654       -0.23983       -0.20666
C          1.77070       -0.95769       -1.02159
H          2.17374       -1.54432       -1.84078
C          0.40968       -0.91490       -0.77253
H         -0.26278       -1.47920       -1.41481
O          3.97575       -0.35124       -0.52449
C          4.90348        0.36246        0.28288
H          4.85805        0.02549        1.32358
H          4.71592        1.44014        0.23666
H          5.88842        0.14488       -0.12931
H         -1.76152        0.53650        1.44803
H         -2.10400        0.14865       -1.42865
