8
id_1990_ca.log	Energy: -150437.2209193
C          0.74265       -0.31790        0.99996
H          0.74958        0.39511        1.82188
H          0.70848       -1.34630        1.34982
C          1.90526       -0.11958        0.07753
O          2.46603       -1.01888       -0.51931
O          2.26731        1.16357       -0.02763
H          3.01271        1.23887       -0.65608
I         -1.09858        0.02226       -0.08689
