33
id_1220_cb.log	Energy: -399291.8318912
C         -4.27970       -1.31107       -0.38765
H         -5.02090       -2.09058       -0.53504
C         -3.60314       -0.77036       -1.48006
H         -3.81642       -1.12664       -2.48352
C         -2.65453        0.23195       -1.28812
H         -2.13282        0.65478       -2.14377
C         -2.36372        0.71227       -0.00608
C         -3.05518        0.16509        1.08108
H         -2.84991        0.53666        2.08198
C         -4.00373       -0.83898        0.89428
H         -4.53086       -1.24899        1.75066
C         -1.31102        1.77483        0.20206
H         -1.60504        2.42298        1.03442
H         -1.23763        2.39743       -0.69619
C          0.08734        1.21430        0.51500
H          0.74935        2.07745        0.65559
C          0.64369        0.39049       -0.66348
H          0.01317       -0.49668       -0.80042
H          0.57531        0.99050       -1.57926
C          2.07326       -0.02851       -0.43436
C          3.12640        0.83483       -0.75694
H          2.90309        1.79469       -1.21748
C          4.44802        0.47704       -0.50230
H          5.25242        1.15749       -0.76555
C          4.73862       -0.75353        0.08642
H          5.76853       -1.03475        0.28365
C          3.69922       -1.62048        0.41713
H          3.91602       -2.58144        0.87424
C          2.37776       -1.25890        0.15774
H          1.56883       -1.94079        0.41034
N          0.05887        0.48460        1.78592
H          1.00055        0.13846        1.97302
H         -0.50553       -0.35650        1.64748
