41
id_1659_ca.log	Energy: -472304.8521815
C          4.75522       -1.06062        0.76272
H          4.68909       -2.05012        1.22218
H          5.17282       -0.36285        1.49409
H          5.46580       -1.12599       -0.06898
C          3.40892       -0.59513        0.27511
C          2.38310       -1.50313        0.02135
H          2.55204       -2.56280        0.20015
C          1.13948       -1.09166       -0.46233
C          0.91686        0.27751       -0.69897
C          1.93765        1.21312       -0.44095
C          3.16498        0.75928        0.04112
H          3.95274        1.48310        0.23841
C          1.74084        2.69146       -0.67509
H          2.63279        3.24391       -0.37143
H          0.89107        3.08190       -0.10446
H          1.55262        2.91089       -1.73145
C         -0.40878        0.73854       -1.24866
H         -0.69987        0.15738       -2.12794
H         -0.41042        1.79345       -1.52346
N         -1.52732        0.56957       -0.25146
C         -1.38848        1.45362        0.94719
H         -0.33328        1.43502        1.22786
H         -1.67963        2.46649        0.66006
C         -2.23922        0.90036        2.08625
H         -3.30675        1.06679        1.91146
H         -1.96306        1.43429        2.99862
O         -1.97006       -0.48111        2.27752
H         -2.59682       -0.98455        1.72463
C         -2.87719        0.66120       -0.90565
H         -3.57049        1.11024       -0.19392
H         -2.79353        1.31189       -1.77753
C         -3.33712       -0.73512       -1.27122
H         -2.67461       -1.18030       -2.01987
H         -4.34696       -0.67664       -1.68872
O         -3.32841       -1.51008       -0.07280
H         -2.99518       -2.39720       -0.27931
C          0.07225       -2.13620       -0.69148
H         -0.52768       -1.93532       -1.58499
H         -0.61196       -2.20746        0.16510
H          0.52907       -3.12151       -0.81059
H         -1.45996       -0.38740        0.12631
