59
id_1257_ca.log	Energy: -573697.4124151
C         -3.12754       -2.30324       -1.66883
H         -3.78142       -2.26400       -2.53457
C         -1.79915       -2.69805       -1.81491
H         -1.41406       -2.96592       -2.79371
C         -0.95981       -2.74466       -0.70278
H          0.08068       -3.04066       -0.81265
C         -1.44575       -2.39971        0.55971
C         -2.78173       -2.01275        0.70297
H         -3.16489       -1.75115        1.68743
C         -3.61991       -1.96507       -0.40770
H         -4.65672       -1.66556       -0.29020
C         -0.53003       -2.38238        1.75300
H          0.43123       -2.85038        1.53561
H         -0.97848       -2.86633        2.62235
N         -0.25039       -0.96012        2.16308
H         -1.15280       -0.50304        2.34188
C          0.54530       -0.15172        1.15613
H          0.31288       -0.60220        0.18970
C          2.02834       -0.33587        1.46764
H          2.23195        0.06804        2.46900
H          2.24954       -1.41172        1.50107
C          2.97377        0.31837        0.45332
H          2.88054        1.41134        0.53343
C          2.65314       -0.07780       -0.99379
H          2.67079       -1.17613       -1.07048
H          1.63955        0.24371       -1.26567
C          3.65562        0.52473       -1.98144
H          3.41822        0.19908       -3.00014
H          3.55519        1.61889       -1.96514
C          5.09404        0.15219       -1.62155
H          5.21946       -0.93549       -1.71568
H          5.79449        0.61746       -2.32390
C          5.41806        0.57047       -0.18663
H          5.36966        1.66552       -0.11063
H          6.44004        0.27688        0.07728
C          4.42334       -0.04739        0.79663
H          4.64978        0.26702        1.82273
H          4.52309       -1.14252        0.76843
C          0.07558        1.29822        1.18369
H          0.20106        1.69096        2.20245
H          0.75597        1.87084        0.54144
C         -1.35627        1.54824        0.69171
H         -2.07720        0.97605        1.30044
C         -1.70119        3.03355        0.86539
H         -1.59530        3.31531        1.91995
H         -0.96671        3.62693        0.30080
C         -3.10726        3.36368        0.36217
H         -3.84504        2.83164        0.97874
H         -3.30587        4.43461        0.48015
C         -3.28032        2.94299       -1.09800
H         -4.29914        3.15755       -1.43909
H         -2.59931        3.53346       -1.72658
C         -2.96273        1.45744       -1.26832
H         -3.06993        1.15418       -2.31620
H         -3.69015        0.86856       -0.69189
C         -1.55312        1.12774       -0.77079
H         -0.81351        1.66058       -1.38825
H         -1.36304        0.05462       -0.89794
H          0.24806       -0.96112        3.06234
