18
id_1099_ca.log	Energy: -493719.9871115
C         -2.12616        1.63568        0.00780
H         -2.69748        1.32865        0.88963
H         -2.70125        1.33621       -0.87420
H         -2.03738        2.72347        0.01221
C         -0.76525        1.00167        0.00250
C          0.39499        1.78158       -0.00264
H          0.29537        2.86243       -0.00381
C          1.66432        1.21399       -0.00903
H          2.55590        1.83306       -0.01516
C          1.76570       -0.16713       -0.01031
C          0.65314       -0.99175       -0.00659
H          0.75582       -2.07220       -0.01061
C         -0.59784       -0.38759       -0.00071
Cl        -2.00521       -1.42205       -0.00107
N          3.09605       -0.78812        0.01099
H          3.08896       -1.71369       -0.43783
H          3.78886       -0.20751       -0.48006
H          3.43398       -0.91741        0.97490
