23
id_1492_ca.log	Energy: -337802.4052837
C          4.00463       -0.00984       -0.00044
H          5.09078       -0.01354        0.00002
C          3.30507        1.14079       -0.36646
H          3.84507        2.03676       -0.65974
C          1.91120        1.14476       -0.36893
H          1.37895        2.04118       -0.67667
C          1.18850       -0.00004       -0.00117
C          1.90307       -1.14984        0.36696
H          1.36438       -2.04231        0.67494
C          3.29692       -1.15557        0.36526
H          3.83055       -2.05517        0.65910
C         -0.29691        0.00524       -0.00055
C         -1.01565        1.15467        0.36101
H         -0.48181        2.05180        0.66327
C         -2.40634        1.16702        0.36570
H         -2.95628        2.05766        0.65557
C         -3.10618        0.01562        0.00430
C         -2.41596       -1.14033       -0.35975
H         -2.96951       -2.03051       -0.64858
C         -1.02365       -1.13784       -0.36020
H         -0.49810       -2.03929       -0.66414
O         -4.47821        0.07185        0.02473
H         -4.84655       -0.78934       -0.23606
