21
id_1925_cb.log	Energy: -360193.6520210
C         -3.22031       -0.13606        0.37679
H         -4.27012       -0.19542        0.64970
C         -2.85055        0.15222       -0.93612
H         -3.61116        0.31739       -1.69426
C         -1.49944        0.22409       -1.28162
H         -1.21615        0.44804       -2.30809
C         -0.49943        0.00966       -0.32800
C         -0.88348       -0.28103        0.98754
H         -0.12071       -0.46049        1.74175
C         -2.23059       -0.35240        1.33843
H         -2.50886       -0.58003        2.36379
C          0.95849        0.15143       -0.71416
C          1.48318        1.55059       -0.41043
H          0.86263        2.28823       -0.93481
H          2.51328        1.64284       -0.76965
O          1.43095        1.78452        0.99633
H          1.79291        2.66735        1.17013
C          1.86244       -0.97289       -0.15567
O          1.36914       -2.13395       -0.10384
O          3.05111       -0.68097        0.14840
H          1.02674        0.04169       -1.80631
