35
id_1666_cb.log	Energy: -678377.8456977
C          5.24664        1.53572        2.11285
H          6.11808        2.16643        2.28771
H          5.37254        0.58328        2.63847
H          4.34826        2.04150        2.48214
O          5.18086        1.33876        0.70754
C          4.15724        0.56872        0.23307
C          4.11375        0.39876       -1.15554
H          4.87258        0.87855       -1.76563
C          3.10640       -0.36178       -1.72844
H          3.07398       -0.48119       -2.80868
C          2.12930       -0.97548       -0.93663
C          2.18185       -0.79561        0.44215
H          1.42823       -1.25426        1.07675
C          3.18577       -0.02859        1.03640
H          3.19532        0.09392        2.11302
C          1.06820       -1.83330       -1.59882
H          1.43169       -2.85702       -1.71580
H          0.85995       -1.45595       -2.60561
N         -0.17068       -1.93901       -0.84368
H         -0.35850       -2.80459       -0.35628
C         -0.99982       -0.91329       -0.61540
C         -0.74813        0.35639       -1.22184
H          0.12809        0.47453       -1.84596
C         -1.57911        1.42733       -1.03748
H         -1.36331        2.37629       -1.51362
C         -2.71647        1.29203       -0.22427
C         -3.01368        0.09908        0.39390
H         -3.88872       -0.00087        1.02241
C         -2.17063       -0.99031        0.20566
N         -2.54561       -2.20032        0.89546
O         -3.55982       -2.20130        1.57872
O         -1.83485       -3.19763        0.78087
N         -3.59260        2.42179       -0.02584
O         -4.57880        2.28252        0.68603
O         -3.31038        3.47569       -0.58118
