16
id_1522_cb.log	Energy: -309068.0531364
C         -2.19728        1.73447       -0.00000
H         -2.82549        2.62093       -0.00000
C         -2.81612        0.44561       -0.00000
H         -3.89939        0.37361       -0.00000
C         -2.04565       -0.68451       -0.00000
H         -2.48812       -1.67736       -0.00000
C         -0.62408       -0.57712       -0.00000
C          0.00000        0.70241       -0.00000
C         -0.83582        1.86574       -0.00000
H         -0.36642        2.84632       -0.00000
C          1.39280        0.72950        0.00000
H          1.93367        1.67267        0.00000
C          2.11099       -0.48184        0.00000
N          1.40648       -1.68223        0.00000
N          0.10759       -1.71739        0.00000
O          3.39228       -0.55554        0.00000
