56
id_1432_ca.log	Energy: -689693.7244166
C          3.48667       -2.14418        1.87376
H          4.13232       -1.67923        1.11936
H          2.66355       -2.64173        1.35005
H          4.06794       -2.91491        2.38866
C          2.96279       -1.10910        2.86482
H          3.79261       -0.69766        3.44801
H          2.28015       -1.58740        3.57484
C          2.23376        0.06111        2.19419
H          1.89518        0.76006        2.96870
H          2.90243        0.61485        1.52999
C          0.99182       -0.39471        1.45155
O          0.23139       -1.19653        1.96570
C          0.73576        0.10090        0.00592
C         -0.63795       -0.41826       -0.47459
H         -0.72031       -1.48435       -0.24756
H         -0.69115       -0.29627       -1.56039
C         -1.80014        0.30756        0.19693
H         -1.60857        0.49396        1.25621
H         -2.04167        1.25469       -0.29137
N         -3.04873       -0.52078        0.15353
C         -4.16639        0.14854        0.89728
H         -4.32718        1.11293        0.40964
H         -3.83817        0.29858        1.92694
C         -5.41359       -0.71310        0.83271
H         -6.23489       -0.18959        1.32442
H         -5.23990       -1.66894        1.34769
O         -5.79813       -0.94764       -0.51094
C         -4.77647       -1.64828       -1.19806
H         -4.59488       -2.61895       -0.71430
H         -5.12367       -1.82030       -2.21804
C         -3.48944       -0.84415       -1.24384
H         -2.69824       -1.41400       -1.73182
H         -3.63251        0.11324       -1.75126
C          1.87516       -0.55048       -0.80172
C          3.07545        0.12781       -1.04948
H          3.19053        1.15904       -0.73026
C          4.13026       -0.49928       -1.70775
H          5.04789        0.05086       -1.89188
C          4.00983       -1.82302       -2.12569
H          4.83173       -2.31286       -2.63829
C          2.82488       -2.51090       -1.87910
H          2.71670       -3.54378       -2.19534
C          1.76973       -1.88151       -1.22151
H          0.86621       -2.45040       -1.02847
C          0.72742        1.62692       -0.10089
C          0.48573        2.44673        1.00415
H          0.36607        2.01629        1.99452
C          0.37001        3.82964        0.85630
H          0.18659        4.44656        1.73046
C          0.48096        4.41134       -0.40189
H          0.39109        5.48684       -0.51795
C          0.70036        3.60029       -1.51578
H          0.77753        4.04121       -2.50482
C          0.81884        2.22299       -1.36579
H          0.98777        1.60006       -2.24037
H         -2.84304       -1.41109        0.63069
