21
id_1511_cb.log	Energy: -323956.6024042
C          2.27809       -1.95992        0.00000
H          1.93914       -2.48490       -0.89392
H          1.93913       -2.48490        0.89392
H          3.36390       -1.89467        0.00000
N          1.72883       -0.59240        0.00000
C          2.56916        0.43956       -0.00000
H          3.62622        0.20489        0.00000
C          2.09926        1.75843       -0.00000
H          2.82051        2.56700       -0.00000
C          0.74671        1.99076       -0.00000
H          0.35912        3.00599       -0.00000
C         -0.17164        0.90718        0.00000
C          0.36037       -0.41576        0.00000
C         -0.53295       -1.51486       -0.00000
H         -0.16137       -2.53322       -0.00000
C         -1.88410       -1.28963       -0.00000
H         -2.56571       -2.13700       -0.00000
C         -2.47250        0.03345        0.00000
C         -1.56403        1.10752        0.00000
H         -1.94317        2.12659       -0.00000
O         -3.75623        0.17959       -0.00000
