25
id_1398_cb.log	Energy: -432026.1498097
C          3.83511       -1.50495       -0.42609
H          3.43357       -2.14371       -1.21978
H          3.84768       -2.05356        0.52153
H          4.84683       -1.19175       -0.68283
O          3.07571       -0.30746       -0.30770
C          1.75260       -0.44194        0.01186
C          1.10641       -1.64972        0.23232
H          1.65050       -2.58460        0.15615
C         -0.25805       -1.66812        0.55743
H         -0.75089       -2.62208        0.72529
C         -0.98042       -0.48764        0.66638
C         -0.32243        0.73583        0.44468
H         -0.88537        1.66037        0.53067
C          1.02676        0.76606        0.12048
O          1.74667        1.90426       -0.10938
C          1.05033        3.14246       -0.02063
H          1.78811        3.91427       -0.23828
H          0.64687        3.29080        0.98640
H          0.24030        3.18698       -0.75618
C         -2.46215       -0.48893        0.96281
H         -2.70559        0.28075        1.70013
H         -2.75583       -1.46535        1.36069
C         -3.26094       -0.22897       -0.32393
O         -3.85458        0.88002       -0.43893
O         -3.25274       -1.14139       -1.19846
