23
id_1309_ca.log	Energy: -405326.3446177
C          3.28952       -0.66175       -0.05787
H          4.31750       -1.00786       -0.07149
C          3.01353        0.72372       -0.11573
H          3.83561        1.42888       -0.18273
C          1.72469        1.19708       -0.09170
H          1.54440        2.26184       -0.14496
C          0.63334        0.29136       -0.01151
C          0.91204       -1.10911        0.01674
C          2.25714       -1.56009        0.00202
H          2.44243       -2.62960        0.03157
C         -0.14613       -2.05274        0.04884
H          0.08711       -3.11398        0.08219
C         -1.43966       -1.62156        0.03060
C         -1.77024       -0.25751       -0.00572
H         -2.80449        0.06893       -0.00875
C         -0.74770        0.65235       -0.00723
N         -1.16486        2.05671        0.02089
O         -0.47059        2.85507        0.62746
O         -2.20671        2.35222       -0.54084
N         -2.53646       -2.59279        0.05829
H         -3.13570       -2.50939       -0.77534
H         -2.17959       -3.55733        0.08881
H         -3.13882       -2.45768        0.88279
