23
id_1792_ca.log	Energy: -324348.8670742
C         -3.78376       -0.68285        0.00000
H         -3.64138       -1.29755        0.89494
H         -3.64138       -1.29755       -0.89493
H         -4.78952       -0.26373        0.00001
O         -2.89771        0.42874       -0.00000
C         -1.56189        0.15388       -0.00000
C         -1.01348       -1.12656       -0.00000
H         -1.64880       -2.00416       -0.00000
C          0.37318       -1.30513       -0.00000
H          0.77646       -2.31076       -0.00000
C          1.22263       -0.20577       -0.00000
C          0.64608        1.06785        0.00000
C         -0.71575        1.26890        0.00000
H         -1.13341        2.27094        0.00000
N          1.56197        2.20888       -0.00000
H          2.17667        2.19636       -0.82630
H          1.05020        3.10070       -0.00001
O          2.58155       -0.23461        0.00000
C          3.19517       -1.52070        0.00000
H          2.91402       -2.08269        0.89590
H          4.26884       -1.33808        0.00000
H          2.91402       -2.08269       -0.89590
H          2.17666        2.19637        0.82630
