14
id_1147_cb.log	Energy: -242646.3589626
C         -1.82127        0.83724        0.00281
H         -2.70495        1.46758        0.00770
C         -1.95441       -0.54935        0.00733
H         -2.93513       -1.01224        0.01526
C         -0.80810       -1.34605        0.00543
H         -0.85880       -2.42997        0.01348
C          0.42896       -0.73426       -0.00585
C          0.59993        0.65338       -0.00970
C         -0.56138        1.43298       -0.00496
H         -0.46119        2.51491       -0.00615
N          1.88054        1.19739       -0.08546
H          2.59190        0.59742        0.31913
H          1.93471        2.13279        0.30411
F          1.55191       -1.49064       -0.00285
