27
id_1078_ca.log	Energy: -1892748.7441959
C          3.09520       -1.26062        1.07517
H          3.20592       -2.15750        0.45681
H          2.10137       -1.25595        1.53085
H          3.83685       -1.30270        1.87742
C          3.35047        0.00000        0.26517
C          3.09520        1.26063        1.07517
H          3.20592        2.15751        0.45680
H          3.83685        1.30271        1.87740
H          2.10138        1.25596        1.53084
C          4.74747       -0.00000       -0.34181
H          4.90854       -0.89179       -0.95603
H          5.48198        0.00000        0.46721
H          4.90854        0.89178       -0.95603
N          2.39427       -0.00000       -0.94761
H          2.62873       -0.82304       -1.52057
C          0.95553       -0.00000       -0.67589
C          0.29237       -1.21414       -0.55321
H          0.82920       -2.15052       -0.67286
C         -1.07186       -1.21506       -0.28285
H         -1.60687       -2.15243       -0.18425
C         -1.73488       -0.00000       -0.14775
C         -1.07185        1.21506       -0.28285
H         -1.60687        2.15243       -0.18425
C          0.29237        1.21414       -0.55321
H          0.82920        2.15051       -0.67286
Br        -3.59285        0.00000        0.21816
H          2.62873        0.82303       -1.52058
