12
id_1400_cb.log	Energy: -249800.6479666
C         -0.70119        1.20193       -0.00002
H         -1.20261        2.16466       -0.00003
C          0.67273        1.16705       -0.00001
H          1.29292        2.05623       -0.00001
N          1.35523       -0.00000       -0.00001
O          2.70264        0.00000        0.00003
C          0.67273       -1.16704       -0.00001
H          1.29291       -2.05623       -0.00002
C         -0.70120       -1.20193       -0.00001
H         -1.20260       -2.16467       -0.00002
C         -1.47749       -0.00001       -0.00000
O         -2.76022        0.00001        0.00003
