36
id_1550_cb.log	Energy: -613531.6855874
C         -2.08397        1.55205        1.83924
H         -2.49226        1.05197        2.72327
H         -2.50807        2.55941        1.79245
H         -1.00270        1.65532        1.96522
C         -2.44847        0.79483        0.57200
H         -1.97606        1.27933       -0.30177
H         -3.52912        0.86992        0.40993
N         -2.13883       -0.63996        0.61552
C         -2.59449       -1.25837       -0.63826
H         -3.67823       -1.10531       -0.68011
H         -2.17175       -0.73581       -1.51262
C         -2.29432       -2.74505       -0.74335
H         -2.62761       -3.27918        0.15213
H         -1.22782       -2.93970       -0.88888
H         -2.82479       -3.16013       -1.60485
C         -0.75013       -0.92603        0.93980
H         -0.60605       -2.00565        1.04545
H         -0.49711       -0.48855        1.91048
P          0.54304       -0.36346       -0.21632
O          0.44811       -0.80518       -1.64090
O          1.85144       -0.87662        0.56151
C          3.14679       -0.55934       -0.00992
H          3.22838       -1.05720       -0.98005
H          3.20512        0.52370       -0.15943
C          4.20411       -1.04122        0.95425
H          5.19569       -0.82294        0.54885
H          4.12033       -2.12044        1.10750
H          4.10260       -0.53722        1.91900
O          0.63012        1.23642       -0.06416
C          0.49612        2.10439       -1.21475
H          1.43379        2.07640       -1.77670
H         -0.30794        1.73222       -1.85633
C          0.19208        3.49134       -0.69959
H         -0.75367        3.49794       -0.14873
H          0.11110        4.18561       -1.54043
H          0.98866        3.83928       -0.03626
