24
id_1594_ca.log	Energy: -441428.2727428
C         -3.00386       -1.09142        1.24554
H         -2.27717       -1.90963        1.24163
H         -4.01281       -1.51233        1.21915
H         -2.88579       -0.52443        2.17132
C         -2.78461       -0.16151        0.06372
C         -1.41868        0.48560        0.03245
C         -1.31177        1.87813        0.02207
H         -2.21513        2.48141        0.02227
C         -0.06322        2.49321        0.01636
H          0.00788        3.57554        0.01304
C          1.09538        1.72184        0.01258
H          2.07172        2.19356        0.00637
C          0.98610        0.33445        0.01930
C         -0.25891       -0.28901        0.03324
H         -0.31722       -1.37577        0.04385
C          2.20937       -0.53288       -0.00504
F          2.18157       -1.45844        0.96915
F          3.33966        0.16973        0.14708
F          2.31721       -1.20833       -1.16318
N         -2.99045       -0.95099       -1.20550
H         -2.32322       -1.73038       -1.27139
H         -2.87098       -0.36058       -2.03721
H         -3.55243        0.61366        0.04149
H         -3.93646       -1.35127       -1.23080
