18
id_1503_ca.log	Energy: -299310.7413493
C          2.69202       -0.94612       -0.00000
H          3.58193       -1.56684       -0.00001
C          1.43590       -1.49296       -0.00000
H          1.28584       -2.56975       -0.00000
C          0.30587       -0.63260        0.00000
C         -1.02385       -1.12329        0.00000
H         -1.20719       -2.19450        0.00000
C         -2.07506       -0.23887       -0.00000
C         -1.84684        1.16164       -0.00000
H         -2.70003        1.83561       -0.00000
C         -0.56577        1.65080       -0.00000
H         -0.38201        2.72135       -0.00000
C          0.54719        0.76913       -0.00000
N          1.80745        1.30056        0.00000
C          2.82409        0.46539        0.00001
H          3.81731        0.90808       -0.00001
O         -3.35200       -0.73862        0.00000
H         -3.99317       -0.00767        0.00000
