26
id_1243_cb.log	Energy: -396408.5382599
N         -0.18998        2.35864       -0.12744
H         -1.11338        2.79366       -0.03644
C         -0.31004        1.08431       -0.09555
C         -1.62917        0.39222        0.01754
C         -2.73993        0.89779       -0.66731
H         -2.62176        1.75338       -1.32702
C         -3.98734        0.29718       -0.52635
H         -4.83948        0.68998       -1.07197
C         -4.13961       -0.80793        0.30949
H         -5.11327       -1.27455        0.42217
C         -3.03851       -1.31564        0.99719
H         -3.15310       -2.17319        1.65265
C         -1.78695       -0.72570        0.84505
H         -0.93101       -1.12380        1.38210
C          0.92865        0.25396       -0.17289
C          0.91513       -1.01846       -0.75241
H         -0.01035       -1.43432       -1.13639
C          2.10093       -1.74473       -0.85381
H          2.09274       -2.72832       -1.31268
C          3.29596       -1.22526       -0.37174
H          4.22350       -1.78522       -0.43517
C          3.30461        0.04411        0.21187
C          2.13049        0.78448        0.30613
H          2.14492        1.77154        0.75930
O          4.50192        0.51342        0.68058
H          4.37039        1.39501        1.06754
