27
id_1320_ca.log	Energy: -326361.5230912
C          4.25372       -1.03871        0.00003
H          5.24857       -0.58831        0.00005
H          4.15914       -1.66590       -0.89085
H          4.15910       -1.66589        0.89093
C          3.21892        0.06731        0.00001
H          3.28558        0.69076       -0.89156
H          3.28553        0.69076        0.89158
N          1.84490       -0.54319       -0.00003
H          1.78095       -1.16551       -0.81946
C          0.68573        0.36814       -0.00002
C          0.86206        1.72263       -0.00002
H          1.85114        2.16444       -0.00003
C         -0.27347        2.57083       -0.00000
H         -0.12396        3.64479       -0.00000
C         -1.53492        2.04065        0.00001
H         -2.40853        2.68609        0.00002
C         -1.73138        0.63290        0.00001
C         -0.60394       -0.23638       -0.00001
C         -0.81376       -1.64139       -0.00002
H          0.03106       -2.32363       -0.00003
C         -2.08884       -2.15107       -0.00001
H         -2.23759       -3.22595       -0.00001
C         -3.21118       -1.28979        0.00001
H         -4.21110       -1.71124        0.00002
C         -3.03428        0.07054        0.00002
H         -3.88712        0.74348        0.00003
H          1.78093       -1.16553        0.81938
