21
id_1913_cb.log	Energy: -407264.2849904
C         -3.41843       -0.38488       -0.04533
H         -4.50234       -0.45078       -0.04985
C         -2.63328       -1.55551       -0.14604
H         -3.12162       -2.52165       -0.24017
C         -1.25708       -1.49557       -0.13347
H         -0.68353       -2.40807       -0.21797
C         -0.57057       -0.25118       -0.01858
C         -1.37463        0.92744        0.04718
C         -2.79061        0.83388        0.04339
H         -3.36653        1.75453        0.10428
C         -0.74844        2.20553        0.10162
H         -1.37565        3.09162        0.16222
C          0.60941        2.32094        0.05947
H          1.10353        3.28766        0.08233
C          1.41938        1.15562       -0.01488
C          0.86687       -0.12437       -0.01385
C          1.80348       -1.31042        0.04925
O          3.02457       -1.09741       -0.28056
O          1.38740       -2.42318        0.44427
O          2.75619        1.37750       -0.06696
H          3.16434        0.46258       -0.18734
