20
id_1465_ca.log	Energy: -297319.1934902
C          3.31725       -0.82900        0.00000
H          3.58737       -0.25937       -0.89399
H          3.87027       -1.76550       -0.00000
H          3.58737       -0.25937        0.89399
N          1.89858       -1.14915        0.00000
H          1.60126       -2.11767       -0.00000
C          0.93079       -0.24546        0.00000
N          1.25370        1.07419        0.00000
C          0.28357        2.03486       -0.00000
H          0.63570        3.05808       -0.00000
C         -1.02040        1.67643        0.00000
H         -1.82480        2.39830        0.00000
C         -1.28497        0.27584       -0.00000
N         -0.34889       -0.65162       -0.00000
O         -2.55774       -0.07128       -0.00000
C         -2.88008       -1.47104        0.00000
H         -2.47927       -1.94937        0.89480
H         -2.47927       -1.94937       -0.89480
H         -3.96738       -1.50999        0.00000
H          2.23006        1.36080       -0.00000
