19
id_1822_cb.log	Energy: -333336.4094076
C          2.15231       -2.42113        0.01549
H          2.57059       -2.58862        1.01377
H          2.98984       -2.35819       -0.68478
H          1.54294       -3.28956       -0.24509
C          1.33333       -1.15782       -0.00878
C          1.96437        0.08597       -0.01156
H          3.05133        0.13267       -0.01552
C          1.23964        1.28775       -0.00989
C         -0.15952        1.22998       -0.00298
H         -0.75474        2.13540       -0.00017
C         -0.76175       -0.01814       -0.00303
C         -0.06115       -1.21705       -0.00781
H         -0.58358       -2.16555       -0.00896
N         -2.22578       -0.07042        0.00228
O         -2.76818       -1.16497       -0.00260
O         -2.84588        0.98206        0.01159
N          1.89139        2.50959       -0.07915
H          1.35695        3.28852        0.28980
H          2.83649        2.49701        0.28857
