21
id_188_cb.log	Energy: -334638.5531904
C          2.82574       -1.52552        0.00955
H          3.59590       -2.29023        0.01737
C          3.19301       -0.16013       -0.02898
H          4.24298        0.11292       -0.05830
C          2.23119        0.82126       -0.03656
H          2.53672        1.86120       -0.08605
C          0.85275        0.48711       -0.00302
C          0.48284       -0.88845        0.01612
C          1.50075       -1.87941        0.02759
H          1.20335       -2.92410        0.04726
C         -0.88513       -1.25853        0.01359
H         -1.16423       -2.30693        0.02209
C         -1.84078       -0.26830       -0.00466
C         -1.49933        1.10691       -0.00237
H         -2.28500        1.85599        0.00244
C         -0.17531        1.49370        0.00238
N          0.17246        2.83686       -0.05529
H          1.00177        3.08396        0.47353
H         -0.59615        3.45623        0.18004
C         -3.23066       -0.63360       -0.01060
N         -4.35330       -0.92534       -0.01565
