23
id_1213_ca.log	Energy: -324372.1656223
C          0.66282        1.21768       -0.51980
H          0.18540        2.13069       -0.86716
C          2.03562        1.20145       -0.30394
H          2.64355        2.08375       -0.47626
C          2.64791        0.02549        0.13187
C          1.88843       -1.12478        0.35052
H          2.37889       -2.03504        0.68551
C          0.51469       -1.09188        0.13615
H         -0.07640       -1.98786        0.30225
C         -0.11092        0.07618       -0.30232
C         -1.61032        0.11975       -0.49564
C         -2.29804        0.36914        0.83639
H         -2.01212        1.32969        1.26288
H         -2.07546       -0.43551        1.53906
N         -3.77759        0.37566        0.62853
H         -4.06734        1.17608        0.05447
H         -4.28336        0.42414        1.51968
O         -2.15021       -1.10644       -0.96576
H         -1.82133       -1.25429       -1.86734
O          4.00225        0.05046        0.32527
H          4.29748       -0.82772        0.61822
H         -1.86403        0.93777       -1.18412
H         -4.05955       -0.48172        0.13761
