23
id_1121_ca.log	Energy: -935012.2938793
C          3.07077        0.25675       -1.19750
H          2.48012        0.04961       -2.08904
H          4.02882       -0.25950       -1.23922
H          3.22464        1.32280       -1.05884
N          2.33903       -0.30912       -0.00348
C          2.96744        0.09161        1.30723
H          2.43852       -0.43022        2.10419
H          2.89755        1.16986        1.42689
H          4.00992       -0.22126        1.26167
C          0.88394       -0.13784       -0.02171
C          0.27280        1.12089       -0.01273
C         -1.11095        1.23738       -0.00419
H         -1.58480        2.21138        0.00459
C         -1.86327        0.07859       -0.00528
C         -1.30965       -1.18785       -0.01810
H         -1.93182       -2.07435       -0.01976
C          0.07337       -1.28142       -0.02463
Cl         0.77458       -2.87081       -0.03357
N         -3.32943        0.19865        0.00950
O         -3.97937       -0.82966        0.00273
O         -3.80439        1.31820        0.02853
Cl         1.18007        2.59731       -0.01077
H          2.50418       -1.32245       -0.06761
