14
id_1783_cb.log	Energy: -3407279.4164320
C          0.84970       -1.36701        0.00398
H          1.42379       -2.28540        0.00796
C         -0.54042       -1.39651        0.00577
H         -1.06107       -2.34806        0.01334
C         -1.26801       -0.21484       -0.00183
C         -0.64460        1.04351       -0.00758
C          0.76027        1.06293       -0.00382
H          1.27238        2.01978       -0.00401
C          1.47306       -0.12383       -0.00142
Br         3.36925       -0.04651        0.00080
N         -1.35681        2.22475       -0.07804
H         -2.29330        2.18847        0.30841
H         -0.84296        3.03749        0.24430
Br        -3.16301       -0.30238       -0.00064
