14
id_1092_cb.log	Energy: -468780.2434412
C          2.35201        0.00406       -0.00114
H          3.42593        0.16235        0.00017
C          1.83531       -1.29170        0.00757
H          2.49355       -2.15348        0.01384
C          0.45592       -1.47117        0.00924
H          0.02264       -2.46609        0.01762
C         -0.38362       -0.36404       -0.00046
C          0.10892        0.94930       -0.00617
C          1.50477        1.10352       -0.00541
H          1.90950        2.11195       -0.00800
N         -0.73133        2.05211       -0.07954
H         -0.29178        2.90752        0.24363
H         -1.63893        1.92162        0.35453
Cl        -2.12009       -0.61344       -0.00511
