11
id_1574_ca.log	Energy: -373452.8068519
C          1.10086        0.59221       -0.36820
H          1.81498        1.38513       -0.14308
H          0.99327        0.49319       -1.44781
C         -0.21074        0.90223        0.30963
H         -0.58768        1.85767       -0.05223
H         -0.10876        0.93290        1.39491
Cl        -1.45810       -0.34436       -0.06908
N          1.68823       -0.68335        0.14024
H          2.60471       -0.85455       -0.28929
H          1.09172       -1.49115       -0.07735
H          1.82108       -0.65234        1.15898
