14
id_1328_cb.log	Energy: -133322.1448798
C         -1.13192       -1.13124        0.00894
H         -0.62467       -2.09917        0.05096
H         -1.76204       -1.11056       -0.88654
H         -1.78574       -1.04524        0.88425
C         -0.13485       -0.00003       -0.02361
C          1.18084       -0.21154       -0.65221
H          1.66471        0.63448       -1.13045
H          1.42338       -1.17953       -1.08035
N          1.05738       -0.19287        0.81669
H          1.36220        0.72607        1.13983
C         -0.74269        1.38008       -0.07286
H         -1.36303        1.55985        0.81253
H         -1.37983        1.49065       -0.95673
H          0.03503        2.14986       -0.11187
