24
id_1860_cb.log	Energy: -325327.3675126
C         -4.01504       -0.00165        0.00495
H         -5.10061       -0.00230        0.00712
C         -3.31038       -1.15318        0.35199
H         -3.84577       -2.05506        0.63355
C         -1.91835       -1.15132        0.35219
H         -1.38159       -2.04800        0.64922
C         -1.19959       -0.00007       -0.00085
C         -1.92109        1.15036       -0.35085
H         -1.38637        2.04757       -0.65000
C         -3.31314        1.15068       -0.34492
H         -3.85069        2.05193       -0.62430
C          0.28353        0.00105       -0.00399
C          1.01093        1.14979        0.33707
H          0.48211        2.05221        0.63203
C          2.39909        1.15586        0.33802
H          2.94072        2.05600        0.61702
C          3.11899        0.00260       -0.00730
C          2.39946       -1.15198       -0.34873
H          2.94140       -2.05276       -0.62497
C          1.01136       -1.14736       -0.34508
H          0.48300       -2.05258       -0.63217
N          4.51000        0.02109       -0.07130
H          4.93664       -0.88925        0.06435
H          4.93649        0.71601        0.53231
