29
id_1036_ca.log	Energy: -233013.3817127
C         -4.46058        0.23945        0.01513
H         -4.56643        0.82513       -0.90460
H         -4.52793        0.93295        0.86051
H         -5.31052       -0.44704        0.07549
C         -3.13192       -0.50975        0.03148
H         -3.09472       -1.21573       -0.80795
H         -3.05670       -1.11063        0.94686
C         -1.93230        0.43071       -0.05067
H         -1.96519        1.13707        0.79014
H         -2.00499        1.03373       -0.96639
C         -0.59489       -0.30755       -0.04021
H         -0.57116       -1.01813       -0.87512
H         -0.52783       -0.90257        0.88182
C          0.58113        0.66253       -0.14987
H          0.49791        1.43567        0.62660
H          0.52798        1.18189       -1.11413
C          1.98243        0.05103       -0.06413
C          2.18458       -1.12679       -1.00705
H          1.51148       -1.95541       -0.76894
H          3.21652       -1.48752       -0.95260
H          1.98431       -0.80110       -2.03149
C          3.04621        1.12006       -0.27416
H          2.96975        1.50269       -1.29501
H          4.04966        0.70547       -0.13441
H          2.90519        1.95356        0.42149
N          2.17586       -0.47463        1.34551
H          2.06318        0.27762        2.03643
H          1.50212       -1.21601        1.57169
H          3.11848       -0.86726        1.45787
