27
id_1692_ca.log	Energy: -232261.1490628
C          2.51653       -1.25692        0.14891
H          2.52164       -1.30510        1.24481
H          2.08655       -2.18809       -0.23051
H          3.55684       -1.21688       -0.18892
C          1.75806       -0.01494       -0.32721
H          1.69285       -0.04525       -1.42471
C          2.53587        1.24045        0.07247
H          2.52535        1.36928        1.16192
H          2.12735        2.14688       -0.38164
H          3.57991        1.15357       -0.24463
C          0.31594        0.02160        0.21779
C         -0.44156        1.29059       -0.19641
H         -0.40943        1.38218       -1.29130
H          0.05097        2.17253        0.22033
C         -1.89661        1.26470        0.27214
H         -2.43602        2.14508       -0.08753
H         -1.93822        1.28065        1.36850
C         -2.61598        0.02830       -0.23124
H         -3.63240       -0.05580        0.15364
H         -2.63515       -0.01646       -1.32265
N         -1.86786       -1.18770        0.22443
H         -2.35005       -2.03211       -0.10186
C         -0.44644       -1.21463       -0.25491
H         -0.49307       -1.25636       -1.34720
H         -0.01817       -2.14256        0.12232
H          0.36620       -0.01238        1.31771
H         -1.87496       -1.22029        1.25152
