41
id_1622_ca.log	Energy: -449028.7957965
C          4.45356        2.56411       -0.14638
H          4.00784        3.00295        0.74495
H          4.28100        3.19833       -1.01401
H          5.51950        2.39602        0.00059
N          3.80420        1.24583       -0.38884
H          2.79764        1.38577       -0.54773
C          3.99677        0.28452        0.73995
H          5.07070        0.11843        0.83750
H          3.62330        0.77775        1.63858
C          3.27984       -1.04558        0.49680
C          1.78968       -0.85870        0.24775
C          1.00986       -0.16785        1.18495
H          1.46650        0.21280        2.09527
C         -0.34900        0.02628        0.97284
H         -0.93067        0.56122        1.71961
C         -0.97681       -0.45761       -0.18336
C         -0.19577       -1.15175       -1.10701
H         -0.65997       -1.54508       -2.00795
C          1.16889       -1.35458       -0.89713
H          1.73724       -1.91766       -1.63087
C         -2.45569       -0.24047       -0.41492
H         -2.70957       -0.68359       -1.38865
C         -2.81376        1.25394       -0.47524
H         -2.54231        1.72413        0.48034
H         -2.21917        1.74472       -1.25452
C         -4.30828        1.45903       -0.72995
H         -4.54155        2.52930       -0.75017
H         -4.56223        1.05699       -1.72047
C         -5.15109        0.74836        0.33052
H         -4.95700        1.20709        1.31009
H         -6.21819        0.88093        0.12073
C         -4.80285       -0.73959        0.39781
H         -5.07297       -1.21591       -0.55481
H         -5.38866       -1.23501        1.17989
C         -3.30865       -0.94519        0.65335
H         -3.06442       -2.01358        0.67394
H         -3.04988       -0.53661        1.64043
O          3.92884       -1.80230       -0.50748
H          3.73181       -1.42360       -1.37946
H          3.41556       -1.61743        1.42106
H          4.18518        0.83999       -1.25254
