15
id_1402_ca.log	Energy: -133628.5439483
C          1.04524       -0.72103       -0.25478
H          1.82883       -1.33646        0.18972
H          1.15613       -0.74078       -1.34316
C          1.04521        0.72108        0.25477
H          1.82877        1.33655       -0.18974
H          1.15612        0.74083        1.34315
C         -0.33611        1.22061       -0.14600
H         -0.37091        1.51113       -1.19556
H         -0.73743        2.02036        0.47335
N         -1.22718       -0.00003       -0.00001
H         -1.83640       -0.09302       -0.81743
C         -0.33605       -1.22062        0.14602
H         -0.37082       -1.51111        1.19558
H         -0.73733       -2.02041       -0.47330
H         -1.83645        0.09293        0.81739
