18
id_163_cb.log	Energy: -342273.4638070
C         -0.93102        2.63431        0.34144
H         -1.00500        3.70048        0.53300
C         -2.07945        1.86442        0.18382
H         -3.06080        2.32411        0.25088
C         -1.98355        0.49188       -0.04678
C         -0.72470       -0.13597       -0.15842
C          0.41198        0.66365        0.00922
C          0.32158        2.03318        0.25874
H          1.22054        2.62719        0.38570
I          2.38248       -0.14681       -0.07183
C         -0.65307       -1.62134       -0.44545
H          0.31501       -1.88558       -0.86967
H         -1.42395       -1.88939       -1.17642
O         -0.81368       -2.39834        0.73772
H         -1.74466       -2.23488        0.99964
C         -3.28219       -0.29786       -0.12942
O         -3.33645       -1.40363        0.48484
O         -4.23115        0.22013       -0.77191
