21
id_1839_cb.log	Energy: -728569.1519086
C          2.66990       -1.12121       -0.38571
H          3.23114       -1.89580       -0.90072
C          1.36979       -1.36276        0.03153
H          0.91479       -2.33028       -0.15739
C          0.63945       -0.36673        0.68716
C          1.23788        0.87362        0.92963
H          0.67528        1.65594        1.42992
C          2.54086        1.11590        0.52356
H          3.00148        2.08140        0.71344
C          3.27809        0.12226       -0.14359
N          4.59638        0.34352       -0.49921
H          4.84494        1.31859       -0.62306
H          4.93517       -0.23682       -1.25823
S         -1.01345       -0.69575        1.25808
C         -1.94983       -0.48854       -0.28828
C         -2.23279        0.95152       -0.70571
H         -2.81962        0.98768       -1.62637
F         -1.05994        1.59949       -0.88014
F         -2.90921        1.55799        0.29404
F         -3.15025       -1.08414       -0.10146
F         -1.33201       -1.09529       -1.32398
