18
id_1847_cb.log	Energy: -641663.7287134
C          2.08136        1.76423        0.35966
H          2.43745        2.73051        0.70320
C          2.92191        0.66109        0.43726
H          3.92772        0.76591        0.83476
C          2.48963       -0.60261        0.00508
C          1.19037       -0.72851       -0.50669
H          0.83589       -1.69825       -0.84444
C          0.36232        0.38924       -0.57761
C          0.78892        1.64612       -0.14940
H          0.12819        2.50376       -0.21027
S         -1.28814        0.20334       -1.24541
C         -2.11357       -0.21734        0.30488
F         -3.41249       -0.40217        0.05624
F         -1.63618       -1.33727        0.85598
F         -2.00246        0.74416        1.22605
N          3.35091       -1.69325        0.02392
H          2.87956       -2.59055        0.06585
H          4.07966       -1.62784        0.72655
