41
id_1784_ca.log	Energy: -472293.7368729
C          7.51586       -0.37474        0.28672
H          7.62954        0.20279        1.21036
H          7.74241        0.29072       -0.55318
H          8.26337       -1.17342        0.29473
C          6.10269       -0.93619        0.16835
H          5.90359       -1.61850        1.00395
H          6.01571       -1.53062       -0.74951
C          5.04823        0.16802        0.15622
H          5.22979        0.84884       -0.68430
H          5.11714        0.76060        1.07657
C          3.64792       -0.39779        0.03843
H          3.42090       -1.06077        0.88343
H          3.53399       -0.97160       -0.89064
O          2.73519        0.70055        0.03561
C          1.40652        0.41605       -0.06729
C          0.87096       -0.86687       -0.16073
H          1.51309       -1.73941       -0.15411
C         -0.51041       -1.05490       -0.26567
H         -0.90216       -2.06230       -0.33851
C         -1.36967        0.03742       -0.27881
C         -0.80644        1.31314       -0.17847
C          0.55023        1.52339       -0.07490
H          0.95631        2.52727        0.00146
N         -1.73252        2.44673       -0.19092
H         -2.45680        2.34393        0.53404
H         -1.24065        3.33415       -0.02732
O         -2.72210        0.00089       -0.38116
C         -3.34695       -1.28869       -0.41108
H         -2.99567       -1.83541       -1.29370
H         -3.05580       -1.84604        0.48821
C         -4.84488       -1.07018       -0.45378
H         -5.09823       -0.50426       -1.35887
H         -5.31882       -2.05450       -0.54855
C         -5.38489       -0.35278        0.78172
H         -5.10191       -0.92075        1.67706
H         -4.90882        0.63079        0.87003
C         -6.90010       -0.18852        0.72891
H         -7.27798        0.32719        1.61666
H         -7.39652       -1.16306        0.66827
H         -7.19878        0.39247       -0.15039
H         -2.22501        2.51909       -1.09257
