23
id_1547_cb.log	Energy: -394835.9714282
C          1.37797        2.50999        0.08974
H          1.82901        2.71771       -0.88609
H          2.19513        2.30862        0.79063
H          0.86609        3.41674        0.42320
C          0.38538        1.37573        0.02295
C         -0.98962        1.62907        0.05116
H         -1.31808        2.66587        0.11009
C         -1.95198        0.62463        0.01738
C         -1.56947       -0.75075       -0.03377
C         -0.17282       -1.04899       -0.05690
C          0.72865        0.01918       -0.01773
N          2.15766       -0.30187        0.02142
O          2.90937        0.27358       -0.75496
O          2.55106       -1.12340        0.83997
C          0.23811       -2.49171       -0.17669
H          1.24415       -2.61427       -0.58359
H         -0.46304       -3.01235       -0.83469
H          0.20673       -3.00085        0.79477
O         -2.46320       -1.69864       -0.05617
C         -3.41749        0.95371        0.04530
H         -3.92885        0.55305       -0.83850
H         -3.57733        2.03526        0.07655
H         -3.90777        0.50580        0.91829
