20
id_1174_ca.log	Energy: -333612.7651645
C         -1.75908        2.02238       -0.09587
H         -2.45752        1.64483       -0.84621
H         -1.49865        3.05411       -0.33840
H         -2.27566        2.00728        0.86725
C         -0.50377        1.19620       -0.04190
C          0.73712        1.84636       -0.06111
H          0.75082        2.92990       -0.11080
C          1.94063        1.15635       -0.02272
H          2.88719        1.68820       -0.03221
C          1.91367       -0.23035        0.02014
C          0.72736       -0.93292        0.02083
H          0.70727       -2.01655        0.04713
C         -0.45679       -0.20347       -0.00129
N         -1.68555       -1.00179        0.01581
O         -1.61912       -2.16059       -0.36351
O         -2.71200       -0.48114        0.41681
N          3.17624       -0.97215        0.09057
H          3.09020       -1.91147       -0.31968
H          3.92900       -0.48238       -0.41238
H          3.48661       -1.08978        1.06575
