9
id_1898_cb.log	Energy: -271706.9576873
C          0.08958       -0.90808       -0.00005
H          0.11646       -1.51979        0.90076
H          0.11645       -1.51968       -0.90095
C          1.26274        0.10301        0.00000
O          0.99021        1.32396        0.00006
O          2.39139       -0.44156       -0.00001
N         -1.20091       -0.17964       -0.00001
O         -1.68708        0.12932       -1.07636
O         -1.68707        0.12919        1.07638
