23
id_1971_cb.log	Energy: -337627.4064664
C         -2.93542       -0.39045       -1.30001
H         -4.03031       -0.41547       -1.32973
H         -2.57283       -1.42106       -1.38435
H         -2.58188        0.16881       -2.17295
C         -2.45934        0.25700        0.00524
H         -2.88601        1.26527        0.05264
C         -2.97683       -0.52486        1.21717
H         -2.63462       -0.07627        2.15597
H         -2.63988       -1.56703        1.19311
H         -4.07235       -0.52828        1.21895
C         -0.93973        0.41437        0.02599
C         -0.44512        1.72281        0.05018
H         -1.18007        2.52362        0.06915
C          0.89226        2.11545        0.04907
H          1.05257        3.19246        0.07264
C          2.06223        1.36802        0.01535
H          2.98695        1.94250        0.01040
C          2.29403       -0.03360       -0.02108
O          3.47801       -0.47636       -0.07580
C          1.19465       -1.06319        0.01670
C         -0.19473       -0.76584        0.01418
H         -0.78126       -1.68412        0.00530
O          1.57046       -2.27348        0.03481
