27
id_1318_ca.log	Energy: -326356.1523217
C          3.24875       -0.27145       -0.84349
H          3.86706       -1.14995       -1.02275
H          3.76579        0.41750       -0.17787
H          2.98137        0.21140       -1.78216
N          1.99646       -0.74833       -0.17419
C          2.31598       -1.30996        1.18098
H          3.05712       -2.09867        1.05393
H          1.40332       -1.70650        1.62402
H          2.71308       -0.49430        1.78500
C          0.91547        0.25619       -0.09024
C          1.23498        1.58100        0.02216
H          2.26761        1.90945        0.02403
C          0.20465        2.54425        0.13478
H          0.47135        3.59178        0.22014
C         -1.10674        2.15301        0.13038
H         -1.90558        2.88450        0.21163
C         -1.45531        0.78035        0.02244
C         -0.43303       -0.20820       -0.08317
C         -0.81388       -1.57610       -0.17178
H         -0.07053       -2.36558       -0.23745
C         -2.13987       -1.93169       -0.16839
H         -2.41189       -2.97986       -0.23768
C         -3.15408       -0.95026       -0.07313
H         -4.19625       -1.25207       -0.07291
C         -2.81585        0.37471        0.02113
H         -3.58092        1.14208        0.09863
H          1.65683       -1.52269       -0.75709
