30
id_1108_cb.log	Energy: -327586.5395540
C          4.02353        0.62942       -0.04273
H          5.01992        1.05855       -0.02693
C          2.98059        1.27857       -0.69895
H          3.16080        2.22515       -1.20073
C          1.69677        0.73819       -0.72360
H          0.90468        1.27017       -1.24023
C          1.42839       -0.48414       -0.08469
C          2.48477       -1.13092        0.58192
H          2.28780       -2.07464        1.08498
C          3.76017       -0.58201        0.59876
H          4.55520       -1.10558        1.12215
N          0.18054       -1.10308       -0.14402
H          0.06537       -1.79227        0.59543
C         -1.03830       -0.31562       -0.32876
H         -0.94251        0.23572       -1.27317
C         -1.28940        0.68642        0.80411
H         -0.43976        1.37263        0.89386
H         -1.35334        0.12279        1.74627
C         -2.58881        1.46271        0.58035
H         -2.49602        2.06240       -0.33580
H         -2.75534        2.16444        1.40471
C         -3.77698        0.50989        0.43826
H         -3.91898       -0.02987        1.38470
H         -4.69765        1.07226        0.24799
C         -3.53221       -0.50124       -0.68339
H         -3.47987        0.03183       -1.64253
H         -4.36861       -1.20465       -0.75498
C         -2.22559       -1.26760       -0.46739
H         -2.04302       -1.96314       -1.29362
H         -2.30019       -1.86634        0.45262
