24
id_1811_ca.log	Energy: -348278.5522085
C         -0.04741        2.51184        0.12324
H          0.70339        2.62051        0.90969
H          0.42461        2.81286       -0.81568
H         -0.87704        3.19102        0.32987
C         -0.55631        1.09719        0.04256
C         -1.93746        0.88850        0.06226
H         -2.61080        1.73821        0.13221
C         -2.45033       -0.39502       -0.00966
C         -1.64488       -1.51816       -0.09393
H         -2.07561       -2.51245       -0.15231
C         -0.27066       -1.32345       -0.10423
H          0.38702       -2.18150       -0.17218
C          0.27582       -0.03712       -0.04088
C          1.76090        0.11201       -0.08357
O          2.35142        1.13990       -0.35079
O          2.39614       -1.02910        0.20234
C          3.82773       -0.97117        0.13929
H          4.20648       -0.25007        0.86589
H          4.14902       -0.68896       -0.86504
H          4.17160       -1.97446        0.38261
N         -3.90856       -0.56945        0.03199
H         -4.20278       -1.40630       -0.48863
H         -4.39758        0.23969       -0.37329
H         -4.24335       -0.67652        1.00001
