18
id_1500_ca.log	Energy: -299317.2382014
C         -2.89370        0.36758        0.00001
H         -3.91887        0.72493        0.00002
C         -2.63447       -1.02442        0.00000
H         -3.46672       -1.72250        0.00001
C         -1.34298       -1.50150       -0.00001
H         -1.13827       -2.56838       -0.00001
C         -0.24831       -0.60154       -0.00001
C         -0.50859        0.79404       -0.00000
C         -1.84690        1.26017        0.00001
H         -2.02533        2.33276        0.00001
C          0.61172        1.67176       -0.00001
H          0.44801        2.74641       -0.00001
C          1.87496        1.15695       -0.00001
H          2.75675        1.78996       -0.00002
C          2.01659       -0.26146        0.00000
N          1.02524       -1.10909       -0.00001
O          3.25687       -0.82210        0.00000
H          3.94279       -0.13219        0.00012
