30
id_1610_cb.log	Energy: -1964303.0810185
C          3.09684        1.35148       -0.28890
H          3.73766        2.00885        0.30741
H          2.06459        1.69231       -0.16047
H          3.37105        1.47106       -1.34435
C          3.28450       -0.10211        0.14588
H          2.91155       -0.21126        1.17257
C          4.75948       -0.48196        0.13265
H          4.90136       -1.51741        0.45553
H          5.33259        0.17090        0.79687
H          5.16784       -0.37812       -0.88019
N          2.55501       -1.08108       -0.68152
H          3.01213       -1.12340       -1.59232
C          1.13969       -0.78565       -0.89551
H          0.93841        0.20827       -1.31730
H          0.74887       -1.52969       -1.59772
C          0.38184       -0.94243        0.42930
C         -1.11000       -0.89287        0.18746
C         -1.84614       -2.07441        0.06431
H         -1.32576       -3.01858        0.18289
C         -3.21267       -2.05242       -0.19618
H         -3.75979       -2.98553       -0.28357
C         -3.87475       -0.83612       -0.34354
H         -4.94066       -0.80709       -0.54451
C         -3.16493        0.35577       -0.23303
H         -3.66521        1.31133       -0.34646
C         -1.79986        0.31040        0.02785
Br        -0.87346        1.97260        0.16478
O          0.74605       -2.17491        1.02338
H          1.64687       -2.34740        0.68296
H          0.65189       -0.11651        1.10323
