17
id_1803_ca.log	Energy: -315686.1021886
C          2.33025        0.92086       -0.00818
H          3.38130        1.18556       -0.01320
C          1.33137        1.87746       -0.00984
C         -0.01877        1.55676       -0.00744
H         -0.76503        2.34532       -0.01193
C         -0.38523        0.21380       -0.00107
C          0.57975       -0.78683        0.00315
H          0.31437       -1.83655        0.00719
C          1.91312       -0.40152       -0.00099
N          2.94039       -1.44991        0.00053
O          4.10739       -1.10157       -0.01026
O          2.57069       -2.60988        0.01322
I         -2.43137       -0.30457       -0.00021
N          1.71283        3.29179        0.01204
H          0.98203        3.88646       -0.40257
H          2.58436        3.45608       -0.51093
H          1.86563        3.62060        0.97691
