20
id_1499_cb.log	Energy: -323677.1670631
C          1.35217        2.82147        0.00000
H          0.85591        3.24299        0.88150
H          0.85591        3.24299       -0.88150
H          2.39447        3.14940        0.00000
C          1.27017        1.32131        0.00000
C          2.40557        0.54606        0.00000
H          3.39094        1.00421        0.00000
C          2.29068       -0.86137        0.00000
H          3.19193       -1.47141        0.00000
N          1.14165       -1.50339        0.00000
C         -0.00839       -0.76904        0.00000
C          0.00000        0.65870        0.00000
C         -1.22211        1.38112        0.00000
H         -1.21634        2.46594        0.00000
C         -2.41247        0.68123        0.00000
H         -3.35394        1.22685        0.00000
C         -2.44476       -0.72251        0.00000
H         -3.39989       -1.24301        0.00000
C         -1.27392       -1.50500        0.00000
O         -1.30652       -2.80076        0.00000
