32
id_1630_cb.log	Energy: -445221.1060281
C         -4.12123        0.88193       -1.46437
H         -5.12979        1.24517       -1.24916
H         -4.19490        0.08838       -2.22687
H         -3.53569        1.70623       -1.88038
N         -3.49754        0.39998       -0.23502
C         -4.29513       -0.69520        0.31343
H         -4.30566       -1.57297       -0.35489
H         -5.32495       -0.35663        0.45410
H         -3.90865       -1.00333        1.28820
C         -2.13695       -0.04797       -0.53192
H         -2.12837       -0.92488       -1.20339
H         -1.61732        0.77177       -1.04178
C         -1.36324       -0.38595        0.74617
C          0.10056       -0.59339        0.43507
C          0.59334       -1.87105        0.19657
H         -0.06618       -2.72957        0.28989
C          1.93072       -2.06179       -0.16011
H          2.32949       -3.05388       -0.34682
C          2.77654       -0.97104       -0.26970
C          2.28594        0.32493       -0.02447
C          0.95544        0.51203        0.32017
H          0.56911        1.50704        0.51156
O          3.22073        1.31347       -0.15837
C          2.78438        2.64782        0.06475
H          3.65697        3.28066       -0.09369
H          2.41908        2.77110        1.08935
H          1.99531        2.92193       -0.64284
O          4.09007       -1.15451       -0.61060
H          4.51915       -0.28109       -0.63303
O         -1.52322        0.67350        1.67875
H         -2.40174        1.04899        1.48095
H         -1.75576       -1.32034        1.17210
