23
id_1216_cb.log	Energy: -254362.8548795
C         -1.97935       -0.68753        1.25430
H         -1.61237       -1.71646        1.30179
H         -3.07363       -0.70858        1.25119
H         -1.64462       -0.16292        2.15638
C         -1.47303        0.03047        0.00000
C         -1.97935       -0.68752       -1.25430
H         -3.07363       -0.70858       -1.25119
H         -1.61237       -1.71645       -1.30180
H         -1.64462       -0.16292       -2.15638
C          0.06386        0.02909        0.00000
C          0.76400       -1.18681       -0.00000
H          0.21490       -2.12513       -0.00000
C          2.15465       -1.21861       -0.00000
H          2.67091       -2.17412       -0.00000
C          2.88405       -0.02913       -0.00000
H          3.96951       -0.05139       -0.00000
C          2.20431        1.18409        0.00000
H          2.75749        2.11873        0.00000
C          0.80821        1.21082        0.00000
H          0.30261        2.17119        0.00000
N         -2.07107        1.37179        0.00000
H         -1.72035        1.88241       -0.81147
H         -1.72035        1.88241        0.81148
