29
id_1768_cb.log	Energy: -454486.2207238
C          5.85091        0.09511        0.49039
H          6.30994        0.59360        1.34936
H          6.12599        0.65532       -0.40988
H          6.28975       -0.90512        0.40711
C          4.33507        0.01336        0.63674
H          3.91903        1.02123        0.74551
H          4.07777       -0.53379        1.55267
C          3.68133       -0.68031       -0.55653
H          4.09502       -1.68959       -0.67035
H          3.91023       -0.13446       -1.48040
C          2.17801       -0.81377       -0.42176
H          1.91496       -1.34544        0.50287
H          1.74948       -1.36269       -1.26973
O          1.62294        0.50094       -0.38287
C          0.27079        0.60067       -0.23781
C         -0.24646        1.91592       -0.19107
H          0.44580        2.74862       -0.26846
C         -1.58860        2.14074       -0.04841
H         -1.97033        3.15645       -0.01311
C         -2.52767        1.07737        0.05954
C         -1.98040       -0.22254        0.00889
C         -0.59430       -0.46085       -0.13717
H         -0.25400       -1.48633       -0.16741
N         -2.81551       -1.37953        0.11163
O         -2.30133       -2.49524        0.07890
O         -4.03530       -1.23504        0.22705
N         -3.84355        1.39157        0.15851
H         -4.49918        0.68329        0.45243
H         -4.06348        2.35510        0.37679
