11
id_195_cb.log	Energy: -108657.3026366
C          1.07995       -0.00008       -0.08833
H          1.46494       -0.00011       -1.11029
H          1.90539       -0.00014        0.62388
C         -0.03717       -1.02949        0.10608
H         -0.11497       -1.33853        1.15528
H         -0.03458       -1.92310       -0.52488
N         -1.03805        0.00007       -0.26816
H         -1.83990        0.00013        0.35974
C         -0.03702        1.02950        0.10608
H         -0.03430        1.92311       -0.52488
H         -0.11478        1.33855        1.15528
