18
id_117_ca.log	Energy: -181572.5128114
C          1.68610       -0.84451       -0.32102
H          2.57931       -0.36146        0.08723
H          1.81005       -0.94242       -1.40374
H          1.59474       -1.84227        0.11784
C          0.45920       -0.00425        0.01121
C          0.58987        1.40270       -0.56433
H          1.49621        1.87238       -0.16818
H         -0.26069        2.03423       -0.28893
H          0.66756        1.36894       -1.65469
C         -0.78202       -0.72591       -0.50365
H         -0.82726       -1.73638       -0.09563
H         -0.80849       -0.76272       -1.59224
N         -2.01341       -0.02189       -0.03145
H         -2.84785       -0.60519       -0.15376
H         -2.17069        0.85757       -0.53564
O          0.26374        0.05684        1.42687
H          0.94167        0.64916        1.79172
H         -1.90953        0.19844        0.96795
