29
id_1632_ca.log	Energy: -373681.4300355
C         -3.78588        1.56127        1.26223
H         -4.77771        2.00200        1.13969
H         -3.05288        2.37124        1.31686
H         -3.77054        1.00338        2.20286
C         -3.50179        0.65071        0.08672
H         -3.49904        1.18953       -0.86210
H         -4.20878       -0.17805        0.02591
N         -2.14153        0.03596        0.22424
H         -1.44010        0.78765        0.27818
C         -1.79184       -0.89365       -0.89153
H         -2.54510       -1.68282       -0.89631
H         -1.86781       -0.32091       -1.81644
C         -0.40426       -1.51592       -0.72299
C          0.70211       -0.48095       -0.55782
C          0.71840        0.67771       -1.34235
H         -0.05464        0.85637       -2.08348
C          1.74395        1.60805       -1.18430
H          1.75255        2.50568       -1.79463
C          2.75702        1.40379       -0.25485
H          3.55855        2.12280       -0.12095
C          2.74084        0.24507        0.52061
C          1.72138       -0.69564        0.37015
H          1.74155       -1.59702        0.97593
O          3.75563        0.07492        1.42153
H          3.63153       -0.76392        1.89648
O         -0.40676       -2.48955        0.30512
H         -0.34381       -2.04842        1.16879
H         -0.22673       -2.07531       -1.64819
H         -2.09688       -0.46946        1.11930
