40
id_1553_cb.log	Energy: -685393.8867766
C         -0.30084        2.82783       -1.65791
H         -1.36421        2.97048       -1.43890
H         -0.19571        2.05964       -2.42903
H          0.10625        3.76779       -2.04069
C          0.43782        2.42644       -0.39958
H          1.49180        2.23427       -0.62679
C          0.30962        3.43669        0.72207
H         -0.74609        3.59539        0.96299
H          0.74467        4.39032        0.40970
H          0.83137        3.09249        1.61898
O         -0.16654        1.16590        0.03821
P          0.72306        0.05102        0.72987
O          1.37040        0.39742        2.01762
O         -0.28579       -1.16068        0.90835
C         -0.93028       -1.76134       -0.24206
H         -0.70380       -1.18406       -1.14232
H         -0.50603       -2.76144       -0.35833
C         -2.41667       -1.86438        0.02019
H         -2.55761       -2.42583        0.94968
H         -2.85498       -2.46845       -0.79614
N         -3.09304       -0.57697        0.15581
C         -4.46016       -0.81773        0.60674
H         -5.02781       -1.44488       -0.10292
H         -4.98641        0.13449        0.71506
H         -4.45181       -1.32064        1.57762
C         -3.14312        0.11478       -1.12883
H         -3.67339       -0.47785       -1.89540
H         -2.13895        0.33383       -1.49762
H         -3.66896        1.06628       -1.00882
O          1.71900       -0.34403       -0.44983
C          2.76870       -1.32858       -0.18099
H          2.45047       -1.94485        0.66769
C          2.87690       -2.18249       -1.42597
H          3.64824       -2.94464       -1.28516
H          3.15226       -1.56129       -2.28413
H          1.92665       -2.68024       -1.63851
C          4.04652       -0.58643        0.15217
H          4.85123       -1.30182        0.34419
H          3.91332        0.03698        1.04015
H          4.33739        0.04993       -0.68968
