14
id_1703_ca.log	Energy: -1804186.0661964
C         -1.55990        1.82219        0.00000
H         -1.90971        2.84871        0.00001
C         -2.46528        0.79883       -0.00000
H         -3.53527        0.96824       -0.00000
C         -2.00042       -0.54004       -0.00000
N         -0.65827       -0.74463        0.00000
C          0.24315        0.28015        0.00000
C         -0.16412        1.57593        0.00000
H          0.55390        2.38510       -0.00000
Br         2.04090       -0.22268       -0.00000
N         -2.80926       -1.58944        0.00000
H         -2.45668       -2.54020        0.00001
H         -3.81172       -1.44463       -0.00002
H         -0.31981       -1.70729        0.00003
