28
id_1060_ca.log	Energy: -279443.2985096
C         -2.58850       -0.59363       -1.01316
H         -2.32878       -0.28113       -2.02394
H         -3.62268       -0.33377       -0.78845
H         -2.43601       -1.66613       -0.89253
N         -1.70687        0.12505       -0.05174
C         -2.11644       -0.16402        1.35183
H         -1.43806        0.33726        2.04118
H         -2.09607       -1.24247        1.50643
H         -3.12980        0.21351        1.48531
C         -0.23915       -0.11194       -0.33727
C          0.27663       -1.45153        0.17235
H          0.20990       -1.48111        1.26628
H         -0.32778       -2.27313       -0.22422
C          1.74326       -1.60937       -0.24533
H          2.12498       -2.56269        0.13168
H          1.80557       -1.64414       -1.34042
C          2.59136       -0.44805        0.27780
H          3.62857       -0.55468       -0.05398
H          2.59936       -0.47299        1.37531
C          2.02934        0.89513       -0.19305
H          2.07938        0.96374       -1.28735
H          2.60484        1.73089        0.21889
C          0.57036        1.05141        0.22473
O         -0.02053        2.23523       -0.29618
H          0.32957        2.98946        0.20365
H         -0.16484       -0.07162       -1.43006
H          0.50632        1.04816        1.32209
H         -1.83334        1.13569       -0.20557
