18
id_194_ca.log	Energy: -1902088.0147427
C         -3.63783       -0.13372        0.22095
H         -4.70145       -0.22870        0.41948
C         -2.71639       -0.29646        1.25935
H         -3.06187       -0.52270        2.26367
C         -1.35292       -0.18409        1.00826
H         -0.63922       -0.32934        1.81383
C         -0.90017        0.10948       -0.28305
C         -1.82283        0.27046       -1.31848
H         -1.47085        0.49733       -2.32178
C         -3.19084        0.15543       -1.06652
H         -3.90109        0.28348       -1.87781
C          0.55256        0.31320       -0.58169
C          1.20377        1.45533        0.17893
O          0.94276        1.75946        1.32173
O          2.12974        2.06354       -0.56375
H          2.55898        2.76948       -0.03979
Br         1.63105       -1.24639       -0.03371
H          0.73665        0.43230       -1.64820
