16
id_1101_cb.log	Energy: -597061.6068260
C         -1.46738        1.44873        0.00150
H         -2.34150        2.09150        0.00380
C         -0.21241        1.99940        0.00143
H         -0.09225        3.07824        0.00325
C          0.96705        1.20194       -0.00102
C          0.76138       -0.20092       -0.00178
C         -0.52530       -0.76928       -0.00117
H         -0.62225       -1.84760       -0.00127
C         -1.62240        0.04947       -0.00034
Cl        -3.22929       -0.63544       -0.00013
N          1.86324       -1.11747        0.00037
O          3.01180       -0.67219       -0.00322
O          1.63706       -2.32315        0.00440
N          2.15944        1.82250       -0.01869
H          3.01895        1.30149        0.06242
H          2.17953        2.83045        0.06099
