14
id_149_cb.log	Energy: -757164.1563218
C         -1.20991        1.42264       -0.00234
H         -2.03166        2.13057        0.00006
C          0.10071        1.87435       -0.00270
H          0.30452        2.94114       -0.00160
C          1.18918        0.98699       -0.00485
C          0.88821       -0.38376       -0.00164
C         -0.41630       -0.86072        0.00288
H         -0.60700       -1.92832        0.00747
C         -1.45972        0.05396        0.00058
Cl        -3.10924       -0.53016        0.00351
Cl         2.20200       -1.53847       -0.00276
N          2.48904        1.45646       -0.07779
H          3.19052        0.85232        0.33620
H          2.59036        2.41502        0.23808
