19
id_1910_ca.log	Energy: -335830.5601131
C          3.68625       -0.11567       -0.00000
H          4.06276        0.90994       -0.00002
H          4.08082       -0.63184       -0.88174
H          4.08082       -0.63181        0.88176
C          2.18296       -0.14802       -0.00000
C          1.50500       -1.38321       -0.00000
H          2.07516       -2.30804       -0.00000
C          0.12445       -1.41992       -0.00000
H         -0.39436       -2.37291       -0.00000
C         -0.63152       -0.23252       -0.00000
C          0.04628        1.00189        0.00000
C          1.44511        1.02945        0.00000
H          1.94144        1.99616        0.00000
O         -0.59435        2.19785        0.00000
H         -1.56327        2.03430       -0.00000
C         -2.09829       -0.26278       -0.00000
O         -2.80882        0.74156       -0.00001
O         -2.62733       -1.48942        0.00001
H         -3.60094       -1.41085       -0.00000
