27
id_1840_ca.log	Energy: -279307.7982476
C          3.55649       -0.00257        0.28905
H          4.04802        0.54117       -0.52391
H          3.95588       -1.01910        0.31427
H          3.82825        0.49703        1.22454
C          2.06272       -0.00934        0.10207
C          1.35996        1.19502        0.01030
H          1.90130        2.13646        0.06734
C         -0.02258        1.22897       -0.15824
C         -0.68461       -0.00002       -0.23136
C         -0.03256       -1.23059       -0.15840
C          1.35360       -1.20603        0.01093
H          1.88740       -2.15118        0.06864
C         -0.77049       -2.53854       -0.28440
H         -0.06866       -3.37091       -0.20781
H         -1.27801       -2.61959       -1.25319
H         -1.52656       -2.66335        0.49809
N         -2.15071        0.00569       -0.36730
H         -2.45108        0.82580       -0.90927
C         -2.87669        0.00745        0.94551
H         -3.94602        0.01310        0.74046
H         -2.58203        0.89925        1.49565
H         -2.59097       -0.88880        1.49314
C         -0.75384        2.54051       -0.28537
H         -0.04840        3.36938       -0.20425
H         -1.51304        2.66789        0.49368
H         -1.25631        2.62544       -1.25649
H         -2.45684       -0.81159       -0.91027
