17
id_1411_cb.log	Energy: -157988.2651859
C         -2.10365        0.00001        0.00364
H         -2.20619       -0.00003        1.10349
H         -2.61301       -0.88602       -0.38620
H         -2.61301        0.88606       -0.38614
N         -0.71155        0.00002       -0.41178
C          0.01495        1.14295        0.14771
H         -0.27567        2.07285       -0.34967
H         -0.21310        1.25066        1.22436
C          1.49032        0.77545       -0.04215
H          1.86308        1.15993       -0.99496
H          2.11149        1.19645        0.75146
C          1.49034       -0.77544       -0.04204
H          2.11136       -1.19629        0.75176
H          1.86332       -1.16006       -0.99471
C          0.01493       -1.14297        0.14763
H         -0.21321       -1.25082        1.22424
H         -0.27563       -2.07281       -0.34990
