13
id_1507_cb.log	Energy: -239764.8815853
C          0.10988       -1.76035        0.00000
H          0.15698       -2.84727        0.00000
C         -1.14131       -1.13644        0.00000
H         -2.06777       -1.70171        0.00000
C         -1.16697        0.26021        0.00000
C          0.00000        1.01679        0.00000
H         -0.06068        2.10404        0.00000
C          1.28019        0.39551        0.00000
C          1.29282       -1.02997        0.00000
H          2.25497       -1.53691        0.00000
O          2.38409        1.09642        0.00000
O         -2.41225        0.86335        0.00000
H         -2.30593        1.82922        0.00000
