26
id_1663_ca.log	Energy: -382925.6311903
C          2.31160       -1.78265       -0.70063
H          1.98623       -2.54178        0.01057
H          3.08122       -2.18181       -1.36059
H          1.46951       -1.41378       -1.28624
N          2.90313       -0.64167        0.05503
C          3.36061        0.43482       -0.86863
H          4.11613        0.01081       -1.52941
H          3.78246        1.24677       -0.27613
H          2.50670        0.78224       -1.45021
C          2.00159       -0.13299        1.15516
H          1.83007       -0.98461        1.81582
H          2.57682        0.62751        1.68588
C          0.70370        0.42806        0.64223
C          0.59468        1.78278        0.31068
H          1.45981        2.42989        0.42719
C         -0.60661        2.31036       -0.15741
H         -0.67703        3.36228       -0.40998
C         -1.72201        1.49276       -0.29498
H         -2.66803        1.88009       -0.65256
C         -1.59546        0.15302        0.04974
C         -0.41124       -0.39861        0.51870
H         -0.36148       -1.44865        0.78592
N         -2.76562       -0.71800       -0.07817
O         -3.80306       -0.23119       -0.49705
O         -2.64978       -1.89074        0.23917
H          3.73651       -1.00114        0.53560
