21
id_1556_ca.log	Energy: -206218.1110504
C         -3.58311       -0.02406       -0.16427
H         -4.31416       -0.77021        0.14189
H         -3.60217        0.11011       -1.24483
H         -3.76723        0.92241        0.34212
N         -2.22731       -0.50112        0.22095
H         -2.04502       -1.40740       -0.22565
C         -1.13067        0.44832       -0.14840
H         -1.19774        0.59123       -1.22939
H         -1.35744        1.39326        0.35040
C          0.22065       -0.10347        0.26531
H          0.24144       -0.24408        1.35334
H          0.37037       -1.08471       -0.19853
C          1.34277        0.84486       -0.15291
H          1.18072        1.83346        0.29176
H          1.33388        0.97162       -1.24236
C          2.70907        0.34372        0.27561
H          2.73909        0.23139        1.36820
H          3.47924        1.07166       -0.00966
O          2.94634       -0.90825       -0.35984
H          3.80508       -1.23414       -0.05121
H         -2.19792       -0.66702        1.23394
