24
id_1746_ca.log	Energy: -1951360.2059706
C          2.67295        0.70486       -1.29803
H          3.75978        0.57331       -1.27518
H          2.44636        1.60670       -1.87806
H          2.23607       -0.15291       -1.81866
C          2.13597        0.86452        0.13308
H          2.42000       -0.01441        0.71377
C          2.81364        2.05561        0.81275
H          3.86767        1.80705        0.97126
H          2.36496        2.27592        1.78671
H          2.78376        2.96184        0.19955
C          0.60845        0.93700        0.09509
C          0.05443        2.19109        0.04838
H          0.75696        3.01651        0.07066
C         -1.29828        2.60619       -0.03204
H         -1.43292        3.68482       -0.06273
C         -2.44704        1.87731       -0.07340
H         -3.38580        2.42195       -0.13079
C         -2.63688        0.45438       -0.04996
O         -3.78931       -0.01388       -0.09233
C         -1.51230       -0.51763        0.01427
C         -0.15265       -0.28670        0.06790
Br         0.87649       -1.91026        0.10508
O         -2.03322       -1.76056        0.01432
H         -1.34352       -2.44598        0.06165
