22
id_11_ca.log	Energy: -266839.0982218
C          2.81390       -0.89705        1.10719
H          3.51309       -0.87574        1.94954
H          3.06444       -1.76291        0.48225
H          1.80840       -1.05784        1.51177
C          2.88776        0.39457        0.29792
H          3.92080        0.56620       -0.02754
H          2.61050        1.24671        0.93210
C          1.98217        0.37696       -0.94341
H          2.28586       -0.45208       -1.59468
H          2.13409        1.30499       -1.50757
C          0.51946        0.23063       -0.59817
C         -0.19873        1.31112       -0.06890
H          0.29737        2.27185        0.05550
C         -1.53521        1.18621        0.30015
H         -2.08705        2.02922        0.70644
C         -2.17866       -0.04185        0.14188
C         -1.48992       -1.13251       -0.38479
H         -2.00016       -2.08504       -0.50757
C         -0.14996       -0.98699       -0.74794
H          0.38355       -1.84328       -1.15535
O         -3.50053       -0.12089        0.52061
H         -3.83152       -1.02153        0.36659
