24
id_1316_cb.log	Energy: -278277.7912327
C         -2.00480        1.19186        0.02777
H         -2.84307        1.88371        0.04584
C         -0.69970        1.66265        0.05075
H         -0.52492        2.73614        0.08942
C          0.40255        0.80026        0.02685
C          0.16082       -0.58069       -0.02098
C         -1.15371       -1.05490       -0.04217
H         -1.33137       -2.12885       -0.07516
C         -2.24944       -0.18845       -0.02002
N         -3.55732       -0.68001       -0.10844
H         -3.65170       -1.62126        0.25938
H         -4.24046       -0.06564        0.32285
C          1.30110       -1.57888       -0.07586
H          1.05038       -2.45081        0.53845
H          1.39305       -1.94736       -1.10696
C          2.63802       -0.97783        0.35420
H          2.63712       -0.80778        1.43901
H          3.44720       -1.68253        0.13773
C          2.86500        0.35317       -0.35973
H          2.79859        0.19427       -1.44425
H          3.86552        0.74471       -0.15001
C          1.80836        1.36512        0.08037
H          1.86097        2.27123       -0.53389
H          2.03080        1.68039        1.10956
