13
id_1519_ca.log	Energy: -481251.0467865
C          1.11084        1.22432       -0.00000
H          1.65795        2.16206       -0.00000
C         -0.28045        1.21598       -0.00000
H         -0.83171        2.15095       -0.00000
C         -0.95534       -0.00176       -0.00000
C         -0.26440       -1.20860       -0.00000
H         -0.80163       -2.15171       -0.00000
C          1.12887       -1.19773       -0.00000
H          1.68512       -2.13131       -0.00000
C          1.81264        0.01825       -0.00000
O          3.18204        0.08719        0.00000
H          3.56057       -0.80819       -0.00002
Cl        -2.70821       -0.01307        0.00000
