24
id_1068_cb.log	Energy: -384852.4358943
C          2.54827       -1.24426        1.19398
H          1.52909       -1.32555        1.58257
H          3.13987       -0.63872        1.88949
H          2.97924       -2.24966        1.15596
C          2.58556       -0.61814       -0.19142
H          2.02671       -1.22786       -0.91051
C          4.00498       -0.43119       -0.69245
H          4.01027        0.02408       -1.68720
H          4.50649       -1.40169       -0.75120
H          4.56893        0.20991       -0.00619
O          2.00449        0.70057       -0.16312
C          0.64592        0.84087       -0.06756
C          0.18623        2.15531        0.08406
H          0.91136        2.96272        0.13348
C         -1.17797        2.40696        0.16633
H         -1.52594        3.42932        0.28338
C         -2.09777        1.35839        0.10153
H         -3.16239        1.55482        0.16924
C         -1.64045        0.04917       -0.04671
C         -0.26739       -0.21270       -0.13239
H          0.05637       -1.24043       -0.24334
C         -2.62575       -1.11036       -0.11079
O         -2.14951       -2.27418       -0.21855
O         -3.85619       -0.83404       -0.04873
