20
id_1928_ca.log	Energy: -276313.1973777
C         -1.07817        1.26333       -0.70963
H         -0.44690        1.05103       -1.58219
H         -1.64684        2.17006       -0.93592
C         -0.21520        1.46468        0.53743
H         -0.85233        1.77513        1.37493
H          0.52141        2.25563        0.37018
C          0.49960        0.15647        0.92329
C         -0.52350       -0.95325        1.12743
H         -1.21802       -0.70609        1.93390
H         -0.05361       -1.91547        1.33513
N         -1.33859       -1.12271       -0.11772
H         -0.66753       -1.38851       -0.85749
H         -2.00677       -1.88966        0.00395
C         -2.06772        0.12528       -0.51254
H         -2.62519       -0.10270       -1.42192
H         -2.77031        0.34212        0.29637
C          1.55142       -0.19981       -0.14295
O          1.30268       -1.16328       -0.92792
O          2.58614        0.51643       -0.18486
H          1.02712        0.30208        1.87120
