18
id_1359_ca.log	Energy: -295368.0536509
C          0.66666        2.47586       -0.38221
H          0.75704        3.50004       -0.73178
C          1.78593        1.80208        0.10109
H          2.75276        2.29843        0.13003
C          1.67340        0.48489        0.55441
C          0.42979       -0.15163        0.52055
H          0.33948       -1.17516        0.87324
C         -0.68118        0.53394        0.03549
C         -0.57876        1.84608       -0.41901
H         -1.44973        2.37417       -0.79316
I         -2.56158       -0.44220       -0.00634
C          2.89619       -0.25147        1.05373
H          2.59773       -1.11494        1.65929
H          3.52717        0.39877        1.66251
C          3.74777       -0.77872       -0.07509
O          4.94629       -0.59773       -0.18283
O          3.04758       -1.50002       -0.95988
H          3.64972       -1.82890       -1.65611
