19
id_1987_ca.log	Energy: -242182.4619878
C          2.92975       -0.63767       -0.00001
H          2.84380       -1.27559       -0.88609
H          2.84382       -1.27561        0.88606
H          3.93122       -0.19731       -0.00002
C          1.87821        0.46600        0.00001
H          2.02886        1.11421       -0.87307
H          2.02886        1.11418        0.87311
C          0.44454       -0.01468        0.00000
C          0.07947       -1.36217        0.00001
H          0.85577       -2.12198        0.00001
C         -1.26095       -1.76001        0.00000
H         -1.51215       -2.81641        0.00000
C         -2.26607       -0.79650       -0.00000
H         -3.31185       -1.08989       -0.00001
C         -1.93125        0.55814       -0.00001
H         -2.70207        1.32569       -0.00001
C         -0.59046        0.93520        0.00000
O         -0.21289        2.25848        0.00000
H         -1.00261        2.82489       -0.00000
