45
id_13_cb.log	Energy: -1106513.1950892
C         -5.89822        3.49603        0.55812
H         -6.48888        3.21559       -0.31854
H         -6.32463        3.05192        1.46183
H         -5.86966        4.58014        0.65524
O         -4.53716        3.09029        0.39509
C         -4.28557        1.77634        0.25987
C         -5.27012        0.79701        0.26613
H         -6.32769        0.99165        0.37762
C         -4.78931       -0.50581        0.11357
N         -3.50695       -0.81730       -0.02883
C         -2.66177        0.21775       -0.01793
N         -2.98442        1.50562        0.11954
N         -1.30632       -0.00051       -0.16109
H         -0.74685        0.84535       -0.15290
C         -0.58004       -1.18670       -0.30742
O         -1.12207       -2.30138       -0.32050
N          0.74234       -0.90579       -0.42547
S          1.71812       -2.17243       -0.58311
O          1.73330       -3.04788        0.61729
O          1.53385       -2.91419       -1.85713
C          3.34179       -1.39450       -0.71091
H          4.01779       -2.25566       -0.74241
H          3.35625       -0.89107       -1.67549
C          3.67952       -0.49770        0.44932
C          3.98801       -1.11174        1.66890
H          3.98586       -2.19646        1.72153
C          4.29845       -0.36666        2.80216
H          4.52456       -0.87358        3.73551
C          4.32579        1.02485        2.73068
H          4.56400        1.61839        3.60774
C          4.06389        1.65267        1.51889
H          4.10400        2.73417        1.45425
C          3.73669        0.90900        0.37587
C          3.49196        1.65597       -0.89568
O          2.84333        1.25567       -1.84594
O          4.07920        2.85748       -0.89377
C          3.86913        3.66428       -2.06290
H          4.27841        3.16258       -2.94183
H          4.40194        4.59388       -1.87140
H          2.80288        3.85451       -2.19998
O         -5.70219       -1.48923        0.11332
C         -5.23882       -2.83674       -0.04007
H         -6.13820       -3.45034       -0.01031
H         -4.72809       -2.95993       -0.99718
H         -4.56860       -3.10690        0.77841
