29
id_1244_cb.log	Energy: -397296.9110645
C          3.75459        0.29537       -0.69317
H          4.54200        0.07919        0.03954
H          3.44290        1.33658       -0.56934
H          4.18395        0.19376       -1.69499
C          2.58825       -0.67809       -0.51621
H          1.77999       -0.37917       -1.19841
C          3.01424       -2.09672       -0.86925
H          3.38279       -2.14548       -1.89781
H          2.17949       -2.79554       -0.76453
H          3.82295       -2.42451       -0.20439
N          2.01098       -0.69656        0.84041
H          2.73222       -1.05442        1.46859
C          1.63465        0.62857        1.33581
H          1.19836        0.51438        2.33417
H          2.47025        1.33499        1.41679
C          0.61050        1.27917        0.41928
O          0.89927        2.31560       -0.16869
C         -0.71856        0.64727        0.23671
C         -1.16216       -0.41509        1.03729
H         -0.51841       -0.82149        1.80939
C         -2.42289       -0.96073        0.85313
H         -2.77792       -1.77981        1.46965
C         -3.25740       -0.44929       -0.14532
C         -2.83055        0.60972       -0.95369
H         -3.49138        0.99503       -1.72510
C         -1.57153        1.15100       -0.75457
H         -1.23199        1.97500       -1.37398
O         -4.48243       -1.02045       -0.29112
H         -4.96163       -0.58095       -1.01414
