26
id_1808_ca.log	Energy: -382927.2790804
C          4.51713       -0.36709       -0.03007
H          5.16322       -0.45887        0.84596
H          4.82409        0.51868       -0.59582
H          4.65105       -1.25558       -0.65367
C          3.07985       -0.22835        0.43533
H          2.75195       -1.12691        0.96368
C          2.83827        1.01576        1.26661
H          3.06675        1.91628        0.68615
H          3.50589        0.98554        2.13116
H          1.81017        1.07433        1.63211
N          2.20526       -0.17503       -0.81719
H          2.49094        0.64644       -1.37037
C          0.76502       -0.12473       -0.56777
C          0.11663       -1.29704       -0.19849
H          0.66560       -2.22991       -0.11783
C         -1.24711       -1.25345        0.05670
H         -1.79075       -2.14554        0.34092
C         -1.90139       -0.03434       -0.06821
C         -1.25883        1.14075       -0.43332
H         -1.80966        2.06879       -0.51906
C          0.10559        1.09124       -0.68815
H          0.64837        1.98570       -0.97768
N         -3.34362        0.01290        0.19438
O         -3.90244       -1.02224        0.51476
O         -3.91304        1.08481        0.07905
H          2.42387       -1.00106       -1.39208
