24
id_1591_ca.log	Energy: -254656.4386930
C          2.64473       -1.77608       -0.02312
H          2.52428       -2.32617       -0.96247
H          2.39692       -2.46469        0.79058
H          3.69609       -1.49415        0.07203
C          1.75321       -0.56241        0.00497
C          2.28704        0.72933        0.00293
H          3.36610        0.85794       -0.00890
C          1.45472        1.84619        0.01561
H          1.88475        2.84297        0.01371
C          0.07192        1.68707        0.02684
H         -0.58244        2.55432        0.03174
C         -0.47936        0.40477        0.03595
C          0.36364       -0.70866        0.02848
H         -0.05880       -1.71327        0.03807
C         -1.98171        0.23941        0.06239
C         -2.50233       -0.56414        1.24251
H         -2.22199       -0.05754        2.16852
H         -2.07264       -1.57031        1.25155
H         -3.59262       -0.64351        1.20323
N         -2.42293       -0.44691       -1.20853
H         -2.03031       -1.39462       -1.26911
H         -2.11734        0.07550       -2.03766
H         -2.45657        1.22123        0.03195
H         -3.44602       -0.53213       -1.24299
