27
id_1455_ca.log	Energy: -456240.4438120
C         -0.84360        3.42921        0.01367
H         -0.30757        3.58047        0.95257
H         -1.92109        3.48179        0.18039
H         -0.53486        4.16535       -0.72595
O         -0.49611        2.15220       -0.54848
C         -0.78077        1.08360        0.19539
O         -1.32121        1.15215        1.28390
C         -0.30599       -0.20248       -0.45478
C         -1.08465       -1.39526        0.08916
H         -0.94294       -1.51277        1.16881
H         -0.73094       -2.31878       -0.38244
C         -2.55936       -1.27604       -0.18178
O         -3.08412       -0.37805       -0.81343
O         -3.25723       -2.29021        0.34687
H         -4.20423       -2.17556        0.13350
C          1.19035       -0.34671       -0.21956
C          1.70223       -0.42613        1.08069
H          1.02710       -0.38037        1.93297
C          3.07347       -0.56230        1.29069
H          3.45981       -0.62207        2.30409
C          3.94683       -0.62087        0.20298
H          5.01512       -0.72808        0.36730
C          3.44197       -0.54042       -1.09438
H          4.11500       -0.58418       -1.94589
C          2.06915       -0.40107       -1.30377
H          1.67594       -0.33561       -2.31528
H         -0.47968       -0.10806       -1.53079
