11
id_1899_cb.log	Energy: -358748.1387973
C         -2.20028        0.08029        0.09439
H         -2.22411        0.27191        1.17345
H         -3.12081       -0.44944       -0.16960
H         -2.20720        1.04661       -0.41919
C         -0.96977       -0.73877       -0.29266
H         -0.91421       -0.87790       -1.37981
H         -1.00347       -1.73647        0.16123
P          0.58705        0.04395        0.22861
O          1.76656       -0.86830       -0.12189
O          0.63657        1.48691       -0.28350
H          0.45937        0.08805        1.63755
