31
id_1221_cb.log	Energy: -398034.7528132
C         -4.61789        0.33930        0.06898
H         -5.20664        0.44594        0.98461
H         -5.02923       -0.49997       -0.50547
H         -4.73452        1.24812       -0.52887
C         -3.15398        0.08311        0.39400
C         -2.32938       -0.01904       -0.90408
H         -2.71295       -0.86859       -1.48431
H         -2.49389        0.88772       -1.49865
C         -0.85571       -0.19916       -0.64473
C         -0.27137       -1.45870       -0.61496
H         -0.87345       -2.33730       -0.83099
C          1.08908       -1.61792       -0.31877
H          1.52142       -2.61179       -0.30688
C          1.87475       -0.50835       -0.04705
C          1.29201        0.77937       -0.07061
C         -0.05589        0.92246       -0.36286
H         -0.50729        1.90941       -0.38269
O          2.14601        1.80863        0.20405
C          1.59887        3.11909        0.18183
H          2.42348        3.79205        0.41618
H          0.81034        3.22927        0.93380
H          1.19704        3.36118       -0.80781
O          3.20846       -0.54092        0.24789
C          3.82415       -1.82008        0.27170
H          3.36903       -2.46199        1.03355
H          4.87104       -1.64524        0.51922
H          3.75469       -2.30861       -0.70614
N         -3.05357       -1.10477        1.25009
H         -2.06367       -1.30093        1.40538
H         -3.38951       -1.89911        0.70046
H         -2.76452        0.93099        0.97175
