23
id_1676_ca.log	Energy: -358272.1560365
C         -3.34516       -0.88057        1.21118
H         -3.62314       -1.73212        0.59091
H         -4.02671       -0.78115        2.05417
H         -2.31982       -0.97843        1.56340
N         -3.45214        0.35238        0.38155
H         -3.15807        1.16454        0.93824
C         -2.65754        0.31118       -0.89398
H         -3.02262       -0.54946       -1.45585
H         -2.89553        1.22870       -1.43414
C         -1.18297        0.20654       -0.61230
C         -0.53468       -1.02679       -0.71218
H         -1.09626       -1.90930       -1.00330
C          0.82429       -1.13106       -0.44257
H          1.34248       -2.07896       -0.51631
C          1.50683        0.02034       -0.07333
C          0.89389        1.26274        0.03581
H          1.46647        2.13616        0.32189
C         -0.46393        1.34672       -0.24027
H         -0.96994        2.30537       -0.17110
N          2.94068       -0.07871        0.21175
O          3.47440       -1.17147        0.11212
O          3.53512        0.93618        0.53642
H         -4.43721        0.50670        0.13650
