22
id_1030_cb.log	Energy: -183400.8422241
C         -3.79386       -0.35039        0.00000
H         -3.83010       -0.99618       -0.88428
H         -4.69585        0.26928       -0.00004
H         -3.83013       -0.99610        0.88435
C         -2.52712        0.49964       -0.00002
H         -2.52270        1.15718        0.87891
H         -2.52269        1.15713       -0.87899
C         -1.25528       -0.34524        0.00001
H         -1.25838       -1.00423       -0.87960
H         -1.25839       -1.00420        0.87966
C          0.02176        0.49137        0.00001
H          0.02364        1.15018        0.87968
H          0.02363        1.15018       -0.87966
C          1.29307       -0.35404       -0.00000
H          1.29999       -1.01067       -0.88154
H          1.29999       -1.01069        0.88152
C          2.56476        0.48745        0.00001
H          2.56599        1.14362        0.87787
H          2.56598        1.14367       -0.87781
N          3.81842       -0.27463       -0.00001
H          3.79505       -0.89977       -0.80632
H          3.79507       -0.89981        0.80627
