13
id_1924_ca.log	Energy: -296642.5711919
C          0.10562        1.91458        0.09179
H          0.11774        1.89913        1.18346
H         -0.74714        2.49960       -0.25822
H          1.02365        2.38061       -0.27212
C          0.03380        0.50946       -0.47721
C          1.12057       -0.39688        0.08166
O          0.91807       -1.34041        0.81269
O          2.31804        0.00713       -0.32540
H          3.00836       -0.57249        0.05624
N         -1.27117       -0.16824       -0.14138
O         -1.92108        0.24808        0.79765
O         -1.58364       -1.12614       -0.82607
H          0.08460        0.49851       -1.56815
