22
id_1492_cb.log	Energy: -337508.1789344
C          3.96498       -0.00001        0.00002
H          5.05114       -0.00001        0.00003
C          3.25835       -1.15736        0.33056
H          3.79380       -2.06447        0.59791
C          1.86454       -1.15548        0.33521
H          1.33254       -2.05917        0.62140
C          1.13814        0.00000       -0.00001
C          1.86455        1.15548       -0.33522
H          1.33256        2.05917       -0.62142
C          3.25836        1.15736       -0.33054
H          3.79382        2.06447       -0.59788
C         -0.34368        0.00001       -0.00002
C         -1.07957       -1.15104       -0.33117
H         -0.55190       -2.05977       -0.61514
C         -2.46833       -1.15768       -0.33456
H         -3.00607       -2.06333       -0.60849
C         -3.22798        0.00000        0.00001
C         -2.46832        1.15768        0.33454
H         -3.00606        2.06334        0.60848
C         -1.07957        1.15105        0.33113
H         -0.55189        2.05978        0.61510
O         -4.53459       -0.00001        0.00003
