27
id_1416_cb.log	Energy: -302922.7740606
C         -4.39993       -0.01607        0.15138
H         -4.77660        0.92464        0.56353
H         -4.75317       -0.83340        0.78726
H         -4.86121       -0.14853       -0.83453
C         -2.89558       -0.00672        0.05958
C         -2.18102        1.18435       -0.09577
H         -2.72160        2.12782       -0.12997
C         -0.79551        1.20165       -0.20971
H         -0.28385        2.14917       -0.34364
C         -0.05453        0.00405       -0.16638
C         -0.76952       -1.19952       -0.00931
H         -0.23953       -2.14476        0.03556
C         -2.15606       -1.19162        0.09946
H         -2.67640       -2.13867        0.22644
N          1.32113        0.01298       -0.29926
C          2.10435       -1.19575       -0.04988
H          1.90107       -1.60695        0.95193
H          1.86843       -1.97235       -0.78405
C          3.54188       -0.69971       -0.15534
H          4.24897       -1.36466        0.34500
H          3.82834       -0.61592       -1.20892
C          3.45631        0.68719        0.48643
H          4.27986        1.34746        0.20665
H          3.45471        0.58543        1.57645
C          2.09720        1.22031        0.01795
H          2.19486        1.86167       -0.86659
H          1.60269        1.80930        0.79920
