20
id_1740_ca.log	Energy: -286991.6849159
C          2.52427        0.12973       -0.01773
H          2.87830        1.09781       -0.37738
H          2.95343       -0.64404       -0.66067
H          2.92799       -0.02110        0.99127
C          1.02189        0.05727       -0.01555
C          0.35595       -1.17602        0.00088
N         -0.98360       -1.26164        0.00470
C         -1.63748       -0.10840       -0.00226
N         -1.12668        1.11458        0.00255
C          0.21543        1.20051       -0.00045
C          0.80395        2.57990        0.01625
H          0.01371        3.32530        0.11703
H          1.35642        2.77501       -0.90974
H          1.50950        2.69154        0.84595
O         -2.98731       -0.22576       -0.00901
H         -3.37894        0.66579       -0.00970
C          1.12189       -2.46400        0.01543
H          1.67426       -2.59166       -0.92285
H          0.44285       -3.30858        0.14131
H          1.85764       -2.46849        0.82663
