27
id_1764_ca.log	Energy: -1892735.7043483
C          2.69078        1.07910        1.72454
H          1.62886        1.30872        1.83925
H          3.25524        1.76076        2.36640
H          2.87087        0.05987        2.07042
C          3.15471        1.31194        0.30086
H          4.23506        1.20753        0.18745
H          2.86872        2.30940       -0.03691
N          2.54204        0.35034       -0.71401
C          3.35470       -0.91675       -0.92900
H          2.71741       -1.58337       -1.51169
H          4.18389       -0.59541       -1.56125
C          3.89953       -1.59107        0.31550
H          4.45287       -2.47013       -0.02631
H          3.12782       -1.93014        1.00816
H          4.60132       -0.94871        0.85250
C          1.09166        0.17451       -0.50519
C          0.27672        1.25064       -0.84275
H          0.70749        2.15480       -1.26394
C         -1.09516        1.16099       -0.64539
H         -1.73910        1.99197       -0.90919
C         -1.62386       -0.01038       -0.11258
C         -0.81231       -1.08665        0.22083
H         -1.23842       -1.99571        0.62935
C          0.56377       -0.99422        0.02394
H          1.18817       -1.84136        0.27898
Br        -3.49372       -0.14259        0.15381
H          2.62250        0.84149       -1.61289
