21
id_1734_cb.log	Energy: -334477.2236058
C          4.38148        0.00047        0.00001
H          4.77414       -0.50742       -0.88611
H          4.77414       -0.50727        0.88621
H          4.76196        1.02625       -0.00008
C          2.91722       -0.00320        0.00001
C          1.70280       -0.00453        0.00001
C          0.27257       -0.00253        0.00000
C         -0.47248       -1.19806       -0.00004
N         -1.80035       -1.20030       -0.00004
C         -2.45753        0.00371        0.00001
N         -1.79495        1.20472        0.00003
C         -0.46714        1.19635        0.00003
C          0.24356        2.51828        0.00008
H          0.88855        2.60761        0.88126
H         -0.47674        3.33810        0.00009
H          0.88856        2.60766       -0.88109
O         -3.72716        0.00670       -0.00000
C          0.23182       -2.52344       -0.00008
H          0.87626       -2.61606        0.88113
H          0.87631       -2.61598       -0.88126
H         -0.49253       -3.33967       -0.00014
