32
id_1964_ca.log	Energy: -718776.6141287
C          3.75590       -2.90538        0.67199
H          4.77943       -3.19605        0.41729
H          3.08906       -3.74106        0.44122
H          3.71042       -2.69783        1.74498
C          3.37356       -1.68172       -0.12442
H          3.39668       -1.87765       -1.20002
H          4.02220       -0.83181        0.10431
O          2.01139       -1.32454        0.24801
P          1.27392       -0.13642       -0.51767
O          1.16967       -0.27054       -2.00183
C         -0.31043       -0.03515        0.31603
C         -0.36133        0.23570        1.68912
H          0.55826        0.37986        2.25051
C         -1.59194        0.32273        2.33436
H         -1.63449        0.53138        3.39827
C         -2.76856        0.14518        1.61079
H         -3.73237        0.21346        2.10557
C         -2.71640       -0.11935        0.24002
C         -1.48484       -0.20997       -0.41407
H         -1.44027       -0.41292       -1.47936
C         -3.99677       -0.29717       -0.49575
O         -5.09618       -0.22798        0.02402
O         -3.83125       -0.54370       -1.80021
H         -4.70836       -0.64902       -2.21740
O          2.13673        1.12930       -0.04137
C          1.83052        2.42921       -0.61222
H          2.07339        2.40029       -1.67774
H          0.75809        2.62093       -0.49325
C          2.65612        3.45701        0.12316
H          3.72344        3.24335        0.01390
H          2.40189        3.46784        1.18705
H          2.45584        4.44864       -0.29328
