31
id_1720_ca.log	Energy: -562534.1748964
C          4.77367       -1.82658        0.08372
H          5.75891       -2.28310        0.10606
C          4.51663       -0.68247        0.84058
H          5.29776       -0.25080        1.45926
C          3.25482       -0.09323        0.81229
H          3.05032        0.78822        1.41270
C          2.23928       -0.64813        0.02439
C          2.49611       -1.80473       -0.72248
H          1.70694       -2.23901       -1.32947
C          3.76139       -2.38681       -0.69671
H          3.95629       -3.27827       -1.28541
C          0.89074       -0.06111       -0.00017
C          0.48617        1.24710       -0.03877
O         -0.88463        1.25729       -0.02048
C         -1.24821       -0.03540        0.01671
N         -0.23643       -0.85983        0.02713
C         -2.67395       -0.35498        0.04446
C         -3.63158        0.66568       -0.00085
H         -3.31927        1.70397       -0.05603
C         -4.98545        0.34246        0.02382
H         -5.72723        1.13440       -0.01227
C         -5.38693       -0.99227        0.09383
H         -6.44395       -1.24059        0.11334
C         -4.43059       -2.00867        0.13948
H         -4.74077       -3.04758        0.19504
C         -3.07558       -1.69472        0.11475
H         -2.32916       -2.48195        0.15116
C          1.17686        2.52568       -0.18137
O          2.38160        2.63880       -0.31630
O          0.33101        3.56300       -0.16289
H          0.84120        4.38994       -0.26914
