19
id_1160_ca.log	Energy: -252513.7840249
C          2.80214       -1.03227        0.00000
H          3.88253       -0.89309        0.00000
H          2.50220       -1.58616       -0.89545
H          2.50220       -1.58616        0.89546
O          2.24066        0.27534        0.00000
C          0.88684        0.37291       -0.00000
C          0.36085        1.67291       -0.00000
H          1.05029        2.51066        0.00000
C         -1.00955        1.87024       -0.00000
H         -1.40691        2.87943        0.00000
C         -1.88846        0.78282        0.00000
H         -2.96476        0.92049        0.00001
C         -1.33718       -0.48317        0.00000
C          0.03145       -0.72793       -0.00000
H          0.40024       -1.74721       -0.00000
N         -2.22891       -1.65310       -0.00000
H         -2.07318       -2.24353       -0.82825
H         -3.21881       -1.37497       -0.00001
H         -2.07319       -2.24352        0.82826
