31
id_1250_cb.log	Energy: -398535.0936229
N          0.09523       -1.24158        2.06613
H          1.03676       -1.52742        2.35723
C          0.16012       -0.58907        0.96845
C          1.42844       -0.27058        0.24706
C          2.62774       -0.10820        0.95080
H          2.63498       -0.17521        2.03566
C          3.80857        0.17089        0.27097
H          4.73117        0.30682        0.82640
C          3.80512        0.28615       -1.11907
H          4.72748        0.50410       -1.64841
C          2.61417        0.13150       -1.82588
H          2.60631        0.22278       -2.90744
C          1.42867       -0.13457       -1.14571
H          0.49911       -0.24752       -1.69701
C         -1.11797       -0.10553        0.35115
C         -1.41091        1.26796        0.37443
C         -2.61395        1.70656       -0.18259
H         -2.85425        2.76605       -0.15580
C         -3.49688        0.80397       -0.76790
H         -4.42680        1.15831       -1.20248
C         -3.18567       -0.55188       -0.80061
H         -3.86918       -1.25693       -1.26621
C         -1.99743       -1.02674       -0.23972
C         -1.66939       -2.49808       -0.28790
H         -0.64404       -2.66592       -0.63504
H         -2.35131       -3.01956       -0.96391
H         -1.75350       -2.95668        0.70215
C         -0.44962        2.25688        0.98496
H          0.41821        2.41587        0.33415
H         -0.93702        3.22315        1.13621
H         -0.07052        1.90769        1.95093
