26
id_1692_cb.log	Energy: -231965.7590330
C         -2.48904       -1.25577       -0.10441
H         -2.48749       -1.35081       -1.19773
H         -2.06324       -2.17140        0.31503
H         -3.53228       -1.19875        0.22359
C         -1.72328       -0.00127        0.32498
H         -1.64952       -0.00293        1.42318
C         -2.51106        1.24127       -0.09732
H         -2.52846        1.33064       -1.19100
H         -2.08758        2.16310        0.31025
H         -3.54793        1.17339        0.24821
C         -0.28764        0.01879       -0.23387
C          0.48524        1.27158        0.20425
H          0.44541        1.33511        1.30256
H          0.00802        2.17585       -0.18591
C          1.94837        1.22872       -0.24059
H          2.49537        2.08532        0.16769
H          2.00287        1.29442       -1.33447
C          2.60570       -0.06859        0.20597
H          3.64062       -0.11864       -0.14495
H          2.62882       -0.09533        1.31032
N          1.86329       -1.20232       -0.34856
H          2.32411       -2.05705       -0.04170
C          0.49810       -1.22675        0.18534
H          0.49086       -1.28124        1.29096
H          0.01155       -2.13104       -0.18836
H         -0.35247        0.01773       -1.33388
