29
id_1239_ca.log	Energy: -373678.0392028
C         -3.84062       -0.14533        1.59203
H         -3.77802        0.84799        2.03795
H         -3.38616       -0.88862        2.24618
H         -4.87752       -0.40446        1.38099
N         -3.09025       -0.12010        0.30571
C         -3.68572        0.86389       -0.64160
H         -3.49439        1.86613       -0.25589
H         -4.75700        0.67378       -0.69836
H         -3.23446        0.73072       -1.62345
C         -1.63069        0.11583        0.54983
H         -1.52662        1.10068        1.01054
H         -1.30665       -0.65770        1.25079
C         -0.82808        0.01807       -0.74107
C          0.65002        0.03935       -0.41564
C          1.31792       -1.13583       -0.06878
H          0.77956       -2.07904       -0.06957
C          2.66777       -1.11441        0.26522
H          3.19025       -2.03062        0.52685
C          3.35931        0.09745        0.26402
C          2.70329        1.28172       -0.07561
H          3.25885        2.21394       -0.07763
C          1.35616        1.24389       -0.41570
H          0.84626        2.16450       -0.68936
O          4.68741        0.17658        0.58367
H          5.01653       -0.71401        0.79082
O         -1.25078       -1.19146       -1.34989
H         -0.78824       -1.27840       -2.19918
H         -1.05850        0.87500       -1.38644
H         -3.16137       -1.04800       -0.13068
