15
id_1069_ca.log	Energy: -180676.9316776
C         -1.91647        0.00000        0.00537
H         -3.00152        0.00000        0.00838
C         -1.22262       -1.20865        0.00153
H         -1.76219       -2.14958        0.00091
C          0.16986       -1.21652       -0.00543
H          0.72904       -2.14726       -0.01127
C          0.83490       -0.00000       -0.00900
C          0.16986        1.21652       -0.00543
H          0.72904        2.14726       -0.01127
C         -1.22262        1.20865        0.00153
H         -1.76219        2.14958        0.00091
N          2.30576        0.00000        0.00621
H          2.68879        0.82986       -0.46532
H          2.68879       -0.82986       -0.46532
H          2.67247        0.00000        0.96807
