15
id_1786_ca.log	Energy: -757441.4209414
C          1.21859        0.98758       -0.00590
H          2.15340        1.53803       -0.01077
C          0.00000        1.64612       -0.00989
C         -1.21859        0.98758       -0.00590
H         -2.15340        1.53803       -0.01077
C         -1.19223       -0.40201        0.00079
C         -0.00000       -1.11684        0.00400
H         -0.00000       -2.20079        0.00606
C          1.19223       -0.40201        0.00079
Cl         2.69704       -1.27457        0.00067
Cl        -2.69704       -1.27457        0.00067
N          0.00000        3.11267        0.00670
H          0.83058        3.49705       -0.46439
H         -0.83058        3.49705       -0.46439
H          0.00000        3.47487        0.97142
