16
id_1930_cb.log	Energy: -251357.2443484
C         -2.06152        0.66360       -0.26876
H         -2.60945        0.98924       -1.15706
H         -2.64587        0.93247        0.61855
C         -0.64974        1.25444       -0.18942
H         -0.61870        2.25225        0.25404
H         -0.22450        1.32395       -1.19755
C          0.14364        0.21909        0.65185
N         -0.73498       -0.96115        0.77408
H         -0.16954       -1.78584        0.57793
C         -1.77273       -0.83010       -0.26575
H         -1.40338       -1.13720       -1.25648
H         -2.64517       -1.44236       -0.02209
C          1.49567       -0.06541       -0.01364
O          1.67506       -1.18118       -0.57525
O          2.34612        0.87115        0.02940
H          0.36019        0.62595        1.64531
