14
id_1737_ca.log	Energy: -237668.4952028
C         -2.00177       -1.14214       -0.00000
H         -2.54996       -0.79726       -0.88300
H         -2.55001       -0.79715        0.88293
H         -1.99374       -2.23494        0.00006
C         -0.60072       -0.61379        0.00000
C          0.52466       -1.41604        0.00000
H          0.41350       -2.49779       -0.00000
N          1.78641       -0.94167       -0.00000
C          1.90067        0.37961       -0.00000
H          2.90531        0.79073       -0.00000
N          0.89990        1.26778        0.00000
C         -0.32692        0.76402        0.00001
O         -1.37114        1.61198       -0.00000
H         -1.03564        2.52779       -0.00001
