17
id_1480_cb.log	Energy: -299017.9683684
C         -2.69503       -0.34187       -0.00000
H         -3.73861       -0.64358       -0.00001
C         -2.36407        1.03768        0.00002
H         -3.15869        1.77851        0.00003
C         -1.04670        1.43649        0.00003
H         -0.79141        2.49209        0.00004
C         -0.00194        0.47727        0.00001
C         -0.33298       -0.90383       -0.00002
C         -1.70138       -1.29128       -0.00002
H         -1.94508       -2.35144       -0.00004
C          0.71785       -1.85856       -0.00003
H          0.47906       -2.92025       -0.00005
N          1.99198       -1.51465       -0.00003
C          2.31556       -0.19959       -0.00001
H          3.37775        0.03701       -0.00000
C          1.39668        0.86585        0.00001
O          1.76313        2.10965        0.00003
