22
id_1370_cb.log	Energy: -264419.6093755
C          2.15225       -1.18524       -0.72746
H          2.10367       -2.11452       -0.15290
H          3.05123       -1.20971       -1.35076
H          1.27893       -1.14878       -1.39826
N          2.22906       -0.04411        0.17731
C          2.24320        1.18972       -0.59912
H          1.37092        1.29638       -1.26471
H          3.14131        1.20998       -1.22382
H          2.27111        2.05316        0.07229
C          1.13892       -0.05850        1.16339
H          1.24118       -0.96950        1.76055
H          1.28301        0.80242        1.82441
C         -0.26519       -0.01936        0.59682
C         -0.88384        1.19948        0.30467
H         -0.36565        2.12960        0.51876
C         -2.15960        1.20086       -0.24763
H         -2.65987        2.13573       -0.48107
C         -2.78233       -0.01970       -0.48765
H         -3.77810       -0.07526       -0.91342
C         -2.09525       -1.18290       -0.15748
H         -2.55705       -2.15328       -0.32338
N         -0.86757       -1.19909        0.37399
