24
id_1505_ca.log	Energy: -348633.1697434
C          3.37118       -1.18532       -0.00000
H          3.39665       -2.27790       -0.00003
H          3.91437       -0.82681        0.88162
H          3.91438       -0.82676       -0.88160
C          1.95160       -0.69268        0.00001
C          0.88657       -1.55690        0.00000
H          1.05366       -2.63254       -0.00000
C         -0.44591       -1.06581        0.00000
C         -1.59682       -1.89606       -0.00000
H         -1.47147       -2.97528       -0.00000
C         -2.84814       -1.32343       -0.00000
H         -3.73323       -1.95280       -0.00001
C         -3.01344        0.08274       -0.00000
H         -4.00505        0.52519       -0.00001
C         -1.90667        0.89815       -0.00000
C         -0.59610        0.33918        0.00000
N          0.45648        1.20525        0.00001
C          1.68093        0.71883        0.00002
C          2.82572        1.68877       -0.00001
H          2.45449        2.71497        0.00000
H          3.46022        1.53944       -0.88112
H          3.46026        1.53944        0.88106
O         -2.04379        2.25673        0.00000
H         -1.14286        2.63759        0.00000
