23
id_1682_cb.log	Energy: -207312.6738161
C          2.52916       -1.05030        0.11578
H          3.43821       -0.51813       -0.18535
H          2.54085       -1.14342        1.20852
H          2.56999       -2.06004       -0.30732
C          1.27775       -0.30905       -0.34101
C          1.22224        1.11050        0.22688
H          1.27419        1.05781        1.32482
H          2.08903        1.69237       -0.11077
C         -0.07280        1.81226       -0.17752
H         -0.08784        1.94498       -1.26704
H         -0.12272        2.81103        0.26687
N         -1.28866        1.07845        0.19499
H         -1.28211        0.98755        1.21461
C         -1.26466       -0.29467       -0.33745
C          0.00373       -1.05953        0.05451
H         -0.00628       -2.05757       -0.40303
H         -0.00188       -1.20510        1.14677
C         -2.51476       -1.03461        0.11216
H         -2.53385       -1.11549        1.20598
H         -3.42032       -0.51037       -0.20700
H         -2.53616       -2.04808       -0.30024
H          1.29502       -0.23081       -1.43893
H         -1.27947       -0.20148       -1.43284
