21
id_1761_cb.log	Energy: -404427.0333868
C         -1.86411        1.79362       -1.18507
H         -2.82761        2.25817       -0.96770
H         -1.99870        0.86600       -1.74340
H         -1.27311        2.47932       -1.80487
C         -1.09790        1.58104        0.08952
O         -1.23004        2.29662        1.06458
C          0.00376        0.54641        0.06755
C          1.29996        1.01974        0.05783
H          1.48430        2.08968        0.09746
C          2.39929        0.13338       -0.02700
C          2.14965       -1.25720       -0.09030
H          2.98760       -1.94435       -0.14695
C          0.85924       -1.73374       -0.06273
H          0.66395       -2.79936       -0.08404
C         -0.21319       -0.83972        0.01493
N         -1.54309       -1.36002        0.11263
O         -1.72790       -2.56280       -0.03805
O         -2.46168       -0.57573        0.35290
N          3.66163        0.61241       -0.07796
H          3.83281        1.58420        0.14543
H          4.43762       -0.02624        0.03761
