20
id_1162_cb.log	Energy: -323342.0567776
C         -3.48393       -0.61212        0.00078
H         -3.77599       -0.02845       -0.87436
H         -3.75736       -0.07461        0.91083
H         -3.96013       -1.59070       -0.01963
O         -2.07545       -0.87015       -0.02072
C         -1.28583        0.21370        0.00313
O         -1.75530        1.34361        0.03564
C          0.15158       -0.11180       -0.01026
C          0.56556       -1.45679       -0.00207
H         -0.19249       -2.23178        0.00056
C          1.90266       -1.80246        0.00747
H          2.20229       -2.84437        0.01425
C          2.86341       -0.78071        0.01303
H          3.92046       -1.02988        0.02640
C          2.48486        0.54637        0.00382
H          3.23324        1.33416        0.00657
C          1.12294        0.92147       -0.01284
N          0.80680        2.25231       -0.08251
H         -0.13614        2.51296        0.17339
H          1.53707        2.89296        0.20186
