17
id_1334_cb.log	Energy: -576735.3132187
C         -1.06218        2.14720        0.30409
H         -1.28586        3.16734        0.60193
C          0.22426        1.80698       -0.11308
H          1.00406        2.56414       -0.13803
C          0.52728        0.49863       -0.50165
C         -0.48381       -0.46792       -0.47022
H         -0.27068       -1.49122       -0.76834
C         -1.75958       -0.11130       -0.04994
C         -2.07216        1.18690        0.34157
H         -3.07709        1.44017        0.66357
Cl        -3.01514       -1.33618       -0.01338
C          1.92267        0.11724       -0.91077
H          2.45843        0.98733       -1.30377
H          1.89613       -0.62981       -1.71295
C          2.78660       -0.48444        0.21476
O          3.99927       -0.69208       -0.07744
O          2.25498       -0.74324        1.32701
