35
id_1047_ca.log	Energy: -282320.2268875
C          5.63258       -1.28627       -0.31152
H          5.28017       -2.30843       -0.13464
H          6.64398       -1.20452        0.09828
H          5.69673       -1.14019       -1.39541
C          4.68617       -0.26891        0.31819
H          5.07051        0.74578        0.15231
H          4.65644       -0.41507        1.40569
C          3.26786       -0.36500       -0.23922
H          2.88164       -1.38045       -0.07228
H          3.29662       -0.22089       -1.32854
C          2.30855        0.64886        0.37906
H          2.69566        1.66379        0.21228
H          2.28027        0.50414        1.46832
C          0.89028        0.55139       -0.17869
H          0.51604       -0.46889       -0.02248
H          0.91451        0.71021       -1.26652
C         -0.06523        1.56070        0.45654
H          0.37364        2.56355        0.37446
H         -0.15285        1.34726        1.53099
C         -1.46023        1.57697       -0.16992
H         -1.38153        1.84695       -1.23188
H         -2.06038        2.36215        0.30775
C         -2.20553        0.24788       -0.04890
H         -2.18865       -0.06848        1.00369
H         -1.68805       -0.53127       -0.62244
C         -3.64469        0.35957       -0.55157
H         -3.64293        0.75269       -1.57462
H         -4.20672        1.07573        0.06143
C         -4.39452       -0.95907       -0.59502
H         -3.86027       -1.71424       -1.17338
H         -5.39849       -0.83957       -1.00176
N         -4.56815       -1.52604        0.78306
H         -5.04348       -0.85359        1.39641
H         -3.66695       -1.75723        1.21514
H         -5.13043       -2.38394        0.76208
