21
id_1929_ca.log	Energy: -276593.6307193
C         -1.10327        1.28097       -0.70186
H         -1.64059        2.20870       -0.91736
H         -0.48292        1.05555       -1.57925
C         -0.23553        1.44899        0.54525
H          0.52246        2.22129        0.39132
H         -0.86033        1.75767        1.39087
C          0.43995        0.11546        0.92811
C         -0.59449       -0.99108        1.08465
H         -0.13465       -1.96520        1.25525
H         -1.27231       -0.75867        1.90815
N         -1.43612       -1.10495       -0.14957
H         -2.13503       -1.84294       -0.01187
H         -0.83122       -1.40147       -0.92779
C         -2.12919        0.17684       -0.50876
H         -2.70864       -0.01662       -1.41187
H         -2.80828        0.40012        0.31792
C          1.47409       -0.25865       -0.10823
O          1.34162       -1.15615       -0.92303
O          2.55397        0.52388       -0.06560
H          0.95900        0.23400        1.88423
H          3.17123        0.26519       -0.77851
