16
id_1803_cb.log	Energy: -315410.4117794
C         -2.31662        0.98628       -0.00571
H         -3.36604        1.25506       -0.00353
C         -1.32472        1.97570       -0.00904
C          0.02535        1.58180       -0.00537
H          0.79630        2.34587       -0.00359
C          0.36155        0.23563       -0.00442
C         -0.60165       -0.76649       -0.00436
H         -0.35035       -1.81814       -0.00237
C         -1.92433       -0.34147       -0.00405
N         -2.97338       -1.36747        0.00219
O         -4.13738       -1.00290        0.00391
O         -2.63316       -2.53895        0.00526
I          2.41084       -0.31273        0.00152
N         -1.66392        3.31268       -0.07387
H         -0.95700        3.94834        0.27822
H         -2.58943        3.53306        0.27661
