53
id_1045_ca.log	Energy: -430258.0577575
C         -0.93015        2.11341        1.46313
H         -1.62513        1.42336        1.95345
H         -1.20657        3.13276        1.75744
H          0.06999        1.91270        1.86310
C         -0.96901        1.95779       -0.05493
H         -2.00201        2.07856       -0.40668
H         -0.67497        0.93521       -0.32703
C         -0.07789        2.96200       -0.79286
H         -0.47721        3.97314       -0.64138
H         -0.13587        2.76047       -1.87021
C          1.39298        2.94291       -0.36440
H          1.49260        3.32906        0.65843
H          1.95884        3.62794       -1.00829
C          2.03127        1.55604       -0.43157
H          1.83554        1.11011       -1.41965
H          1.53618        0.91744        0.31607
C          3.53683        1.58717       -0.16642
H          3.70974        1.96171        0.85104
H          4.00328        2.30728       -0.84925
C          4.25309        0.24229       -0.32546
H          5.31191        0.37317       -0.08330
H          4.21377       -0.09275       -1.37012
C          3.71571       -0.86435        0.57624
H          3.35475       -0.46777        1.52894
H          4.46318       -1.63317        0.77654
N          2.55742       -1.58007       -0.05394
H          1.88361       -0.89249       -0.40882
C          1.84728       -2.52133        0.86939
H          2.56673       -3.29827        1.13286
H          1.60063       -1.94306        1.76336
C          0.59696       -3.08582        0.21602
H          0.87031       -3.63313       -0.69466
H          0.17850       -3.81935        0.91421
C         -0.45814       -2.02342       -0.09819
H         -0.64209       -1.42513        0.80479
H         -0.08821       -1.32712       -0.86592
C         -1.76190       -2.63772       -0.60770
H         -1.53011       -3.29070       -1.45877
H         -2.18768       -3.28162        0.17383
C         -2.79751       -1.59701       -1.03684
H         -2.34929       -0.93528       -1.79235
H         -3.63766       -2.10423       -1.52856
C         -3.33990       -0.74734        0.11088
H         -3.78969       -1.40337        0.86979
H         -2.51659       -0.21901        0.60891
C         -4.37331        0.27811       -0.35031
H         -3.94353        0.88020       -1.16203
H         -5.23805       -0.24513       -0.77849
C         -4.82839        1.19595        0.77979
H         -3.98191        1.76421        1.18373
H         -5.26245        0.61738        1.60284
H         -5.58176        1.91320        0.43973
H          2.89171       -2.09787       -0.87650
