32
id_1249_ca.log	Energy: -398824.3292237
N         -0.27577        2.20805       -0.94405
H         -1.09041        2.81940       -0.97507
C         -0.33896        1.01065       -0.44760
C         -1.63075        0.48128       -0.00287
C         -1.66550       -0.39837        1.08800
H         -0.74252       -0.68234        1.58445
C         -2.88553       -0.88356        1.54132
H         -2.91569       -1.55341        2.39390
C         -4.06572       -0.51294        0.89720
H         -5.01633       -0.90345        1.24617
C         -4.03200        0.35067       -0.19803
H         -4.95032        0.62444       -0.70622
C         -2.81899        0.85517       -0.64739
H         -2.79193        1.50382       -1.51832
C          0.91151        0.24665       -0.30345
C          2.01301        0.91652        0.25362
H          1.90310        1.95100        0.56991
C          3.22718        0.26869        0.45050
C          3.32060       -1.06854        0.04997
H          4.25986       -1.59916        0.18496
C          2.24005       -1.72664       -0.52463
H          2.35133       -2.75733       -0.84951
C          1.00585       -1.09821       -0.70974
C         -0.11567       -1.86022       -1.37109
H         -0.76633       -2.33471       -0.62877
H          0.30245       -2.65068       -1.99901
H         -0.74058       -1.21975       -1.99861
C          4.40152        0.97235        1.07503
H          4.69020        0.48745        2.01313
H          4.16761        2.01808        1.28788
H          5.27109        0.94137        0.41111
H          0.59933        2.57798       -1.31272
