13
id_1583_cb.log	Energy: -1551332.5375780
C         -1.45076        0.06073        1.28827
H         -1.07686        0.94642        1.81394
H         -1.18610       -0.81901        1.87727
C         -0.69203       -0.03712       -0.04782
C          0.86815        0.02617        0.13225
Cl         1.71169       -0.11336       -1.42770
Cl         1.33956        1.56988        0.88940
Cl         1.39836       -1.30469        1.19245
Cl        -1.10337       -1.57370       -0.86192
Cl        -1.19116        1.32139       -1.10381
N         -2.88611        0.07013        1.07299
H         -3.19325        1.02889        0.92361
H         -3.32965       -0.23769        1.93490
