34
id_1025_cb.log	Energy: -282023.4533562
C         -4.02279        2.27560       -0.08694
H         -3.47121        2.70813        0.75519
H         -5.06194        2.13927        0.23189
H         -4.01406        3.00442       -0.90313
C         -3.40599        0.94678       -0.51280
H         -2.38101        1.11931       -0.86636
H         -3.96258        0.53334       -1.36443
C         -3.39384       -0.07270        0.62576
H         -4.40682       -0.15644        1.03994
H         -2.76643        0.31001        1.44239
C         -2.91885       -1.46850        0.20863
H         -3.65009       -1.90365       -0.48401
H         -2.88842       -2.11887        1.09084
C         -1.55553       -1.48924       -0.47463
H         -1.62106       -0.97316       -1.44839
H         -1.28036       -2.52684       -0.69771
N         -0.50499       -0.91800        0.36810
H         -0.76976        0.04912        0.56476
C          0.76575       -0.86198       -0.35443
H          1.08457       -1.89131       -0.56293
H          0.65485       -0.36623       -1.33574
C          1.84208       -0.14734        0.44868
H          1.49744        0.86905        0.68651
H          1.98348       -0.66515        1.40581
C          3.17238       -0.06901       -0.29567
H          3.51440       -1.08466       -0.53894
H          3.02506        0.44651       -1.25485
C          4.25923        0.65076        0.49942
H          3.91599        1.66480        0.74148
H          4.40572        0.13570        1.45745
C          5.58347        0.72201       -0.25432
H          6.35091        1.24196        0.32721
H          5.46348        1.25469       -1.20413
H          5.95733       -0.28235       -0.48172
