23
id_1748_cb.log	Energy: -1951082.4436607
C          4.12739       -0.42474        1.26109
H          4.18579        0.66892        1.29262
H          5.15029       -0.81651        1.27549
H          3.61668       -0.76604        2.16793
C          3.40047       -0.90384        0.00001
H          3.41615       -1.99955        0.00001
C          4.12739       -0.42474       -1.26106
H          3.61668       -0.76604       -2.16791
H          5.15029       -0.81651       -1.27547
H          4.18579        0.66892       -1.29260
C          1.93500       -0.47845        0.00001
C          0.98420       -1.50585       -0.00000
H          1.36181       -2.52472       -0.00001
C         -0.39866       -1.38228       -0.00001
H         -0.93572       -2.32725       -0.00002
C         -1.21040       -0.25359       -0.00001
C         -0.92092        1.14569        0.00001
O         -1.83299        2.00433        0.00003
C          0.49823        1.67476        0.00002
C          1.68258        0.88849        0.00002
H          2.56499        1.52726        0.00002
O          0.60150        2.93496        0.00003
Br        -3.08036       -0.63930       -0.00003
