19
id_1713_ca.log	Energy: -343684.4050259
C         -3.22798       -1.13516        0.00000
H         -3.27848       -1.77655       -0.88418
H         -4.09520       -0.47226       -0.00002
H         -3.27850       -1.77652        0.88420
C         -1.95471       -0.34137        0.00000
C         -0.69639       -0.96042        0.00000
H         -0.62432       -2.04337       -0.00000
C          0.47274       -0.23014        0.00000
C          0.45427        1.19449        0.00000
N         -0.79337        1.73356       -0.00001
C         -1.94955        1.03124       -0.00001
H         -2.85024        1.63346       -0.00001
N          1.49063        2.01484        0.00002
H          1.34582        3.01928        0.00001
H          2.43140        1.64200       -0.00000
N          1.72652       -0.95560       -0.00000
O          1.68832       -2.17240        0.00001
O          2.76903       -0.31253       -0.00002
H         -0.86596        2.75194       -0.00002
