38
id_1968_cb.log	Energy: -471272.3205172
C         -1.12313        3.22491        0.08921
H         -1.46657        4.16924       -0.34232
H         -0.09877        3.05828       -0.25770
H         -1.09777        3.34636        1.17640
C         -2.05177        2.09217       -0.33795
H         -2.01399        1.97610       -1.42483
H         -3.08675        2.34584       -0.08121
C         -1.76232        0.73997        0.33735
C         -2.24200        0.73844        1.78115
H         -1.83203        1.59414        2.32460
H         -1.93435       -0.17778        2.29040
H         -3.33345        0.80003        1.80248
C         -2.41584       -0.38087       -0.47990
H         -1.90887       -0.45054       -1.45714
H         -3.43965       -0.04287       -0.67731
N         -2.50400       -1.69660        0.15401
C         -3.28154       -2.56084       -0.73039
H         -3.38094       -3.55349       -0.28305
H         -2.80977       -2.67605       -1.72212
H         -4.28261       -2.14513       -0.87547
C         -1.17894       -2.28757        0.33165
H         -1.29059       -3.32766        0.65036
H         -0.61370       -1.75751        1.10026
H         -0.59007       -2.27765       -0.60425
O         -0.31912        0.52346        0.47192
C          0.49760        0.49749       -0.57724
O          0.16981        0.76209       -1.72067
C          1.88674        0.10408       -0.19939
C          2.22181       -0.25753        1.10893
H          1.46543       -0.24646        1.88613
C          3.52891       -0.62948        1.40802
H          3.79026       -0.91102        2.42293
C          4.49940       -0.64037        0.40701
H          5.51827       -0.93061        0.64416
C          4.16492       -0.27945       -0.89812
H          4.92047       -0.28820       -1.67706
C          2.86001        0.09138       -1.20202
H          2.58487        0.37270       -2.21324
