22
id_1031_cb.log	Energy: -1796844.9712029
C          2.10837        0.00389       -0.23168
H          2.06113       -0.25456       -1.29888
H          2.13472       -0.94522        0.31985
C          0.84564        0.76794        0.16072
H          0.80392        1.71516       -0.39310
H          0.89345        1.02793        1.22657
C         -0.42689       -0.03606       -0.10987
H         -0.39729       -0.98024        0.44579
H         -0.49109       -0.28678       -1.17480
C         -1.65366        0.75253        0.29876
H         -1.76039        1.67595       -0.26992
H         -1.66644        0.97413        1.36562
Br        -3.30195       -0.26418       -0.04311
C          3.38436        0.79775        0.03918
H          3.44670        1.03477        1.11088
H          3.33224        1.75686       -0.49333
C          4.65842        0.06711       -0.38234
H          5.51804        0.72858       -0.23356
H          4.61311       -0.15053       -1.45559
N          4.93308       -1.19175        0.31975
H          4.15322       -1.82636        0.15079
H          4.89795       -0.99998        1.32172
