22
id_1305_cb.log	Energy: -405051.8827961
C          2.72996        1.79900       -0.02108
H          3.39695        2.65551       -0.02965
C          1.37064        1.98321       -0.00377
H          0.93035        2.97518        0.00060
C          0.51834        0.84917        0.00445
C         -0.88878        1.00774        0.01365
H         -1.31932        2.00276        0.02848
C         -1.68874       -0.10326       -0.00122
C         -1.17734       -1.41777       -0.03429
H         -1.85105       -2.26451       -0.06216
C          0.18210       -1.58391       -0.03769
H          0.57995       -2.59191       -0.08270
C          1.06473       -0.46906       -0.00530
C          2.48972       -0.62700        0.00551
C          3.28699        0.50356       -0.00953
H          4.36677        0.38223       -0.00320
N          3.04969       -1.90070       -0.03857
H          2.56707       -2.59382        0.52342
H          4.03948       -1.89840        0.18659
N         -3.13780        0.08108        0.00795
O         -3.84399       -0.91579       -0.01064
O         -3.58340        1.21831        0.03421
