19
id_1475_ca.log	Energy: -242184.6045824
C          2.57983       -0.28983       -0.00000
H          3.29676        0.53529        0.00001
H          2.77425       -0.91346       -0.88056
H          2.77425       -0.91348        0.88054
C          1.16601        0.23002        0.00000
C          0.92042        1.60691       -0.00000
H          1.75992        2.29739       -0.00000
C         -0.38599        2.09354       -0.00000
H         -0.57204        3.16381       -0.00000
C         -1.45903        1.20786        0.00000
H         -2.48518        1.56764       -0.00000
C         -1.21188       -0.16614        0.00000
C          0.09184       -0.67874        0.00000
C          0.34899       -2.16282       -0.00000
H          0.93104       -2.45825        0.88080
H          0.93103       -2.45825       -0.88081
H         -0.57989       -2.73442        0.00001
O         -2.25420       -1.06813       -0.00000
H         -3.09773       -0.58613       -0.00000
