12
id_1924_cb.log	Energy: -296366.2771606
C          0.22284        1.90112        0.09550
H          0.26539        1.87709        1.18700
H         -0.61430        2.52821       -0.22101
H          1.14860        2.33866       -0.28386
C          0.09934        0.50336       -0.48136
C          1.21122       -0.44566        0.04890
O          0.86862       -1.42035        0.75669
O          2.37062       -0.10818       -0.28780
N         -1.22185       -0.11327       -0.13340
O         -1.78143        0.22820        0.89460
O         -1.65425       -0.97538       -0.88280
H          0.12434        0.50166       -1.57211
