30
id_1729_cb.log	Energy: -348483.5741749
C          2.85590       -0.70111        1.72782
H          3.79741       -1.13603        1.37798
H          2.06984       -1.45561        1.60997
H          2.96188       -0.50117        2.79806
C          2.50711        0.57951        0.97434
H          3.31285        1.31430        1.09106
H          1.60624        1.02580        1.41031
C          2.26322        0.37430       -0.52847
C          3.49380       -0.15628       -1.25333
H          3.33007       -0.17241       -2.33444
H          3.73222       -1.17598       -0.93150
H          4.35981        0.47771       -1.04199
N          1.15069       -0.54185       -0.78780
H          1.37633       -1.52418       -0.66861
C         -0.13648       -0.25121       -0.42733
N         -0.95753       -1.31040       -0.28927
C         -2.23363       -1.04147       -0.00283
C         -2.68935        0.26742        0.15315
H         -3.72536        0.47812        0.39092
C         -1.75946        1.29078        0.00006
N         -0.47706        1.03992       -0.29384
C         -2.14446        2.73199        0.15822
H         -3.20721        2.83748        0.38383
H         -1.91852        3.28381       -0.75942
H         -1.56274        3.18815        0.96538
C         -3.15560       -2.21488        0.14981
H         -4.17051       -1.89445        0.39202
H         -2.79277       -2.87632        0.94254
H         -3.17846       -2.79698       -0.77666
H          1.98992        1.33983       -0.96164
