24
id_133_cb.log	Energy: -384847.0372985
C         -3.71490        0.43031        0.66674
H         -4.70137        0.88417        0.53040
H         -2.98500        1.23930        0.77342
H         -3.73019       -0.13722        1.60447
C         -3.36643       -0.47840       -0.50889
H         -3.34486        0.09553       -1.44302
H         -4.13204       -1.25396       -0.62642
C         -2.03629       -1.18370       -0.33285
H         -1.82805       -1.85005       -1.17846
H         -2.02943       -1.77402        0.59301
O         -1.01999       -0.18043       -0.25802
C          0.27027       -0.57491       -0.07109
C          0.65113       -1.91876        0.00925
H         -0.08857       -2.70788       -0.05849
C          1.99662       -2.25284        0.17248
H          2.27473       -3.30083        0.24019
C          2.97131       -1.26140        0.23977
H          4.01799       -1.52167        0.36272
C          2.58477        0.07553        0.14261
H          3.33264        0.86276        0.18666
C          1.24500        0.43965        0.00504
C          0.89270        1.91596       -0.03545
O         -0.07976        2.31296        0.66253
O          1.63088        2.65688       -0.74329
