26
id_1275_ca.log	Energy: -349521.5289128
C         -3.69469       -0.52738       -0.00150
H         -4.70632       -0.92124       -0.00266
C         -3.49286        0.85581       -0.00193
H         -4.34909        1.52309       -0.00345
C         -2.20410        1.38614       -0.00055
H         -2.04512        2.46076       -0.00103
C         -1.12447        0.50581        0.00110
C         -1.32533       -0.88507        0.00132
C         -2.61134       -1.40842        0.00017
H         -2.77391       -2.48241        0.00034
C          0.00055       -1.61186        0.00247
H          0.12117       -2.25480       -0.87832
H          0.12089       -2.25241        0.88492
C          0.98473       -0.46996        0.00152
C          0.32228        0.76797        0.00178
C          1.03708        1.96382        0.00136
H          0.51891        2.91795        0.00134
C          2.43000        1.91694        0.00027
H          3.00365        2.83740       -0.00034
C          3.10503        0.69531       -0.00125
H          4.19033        0.65575       -0.00299
C          2.36626       -0.48079       -0.00102
N          3.06282       -1.77382       -0.00183
H          2.77716       -2.35608       -0.80148
H          4.08168       -1.64836       -0.05839
H          2.86205       -2.31280        0.85235
