35
id_105_ca.log	Energy: -633845.2729031
C         -1.41405       -1.64520        1.04937
H         -1.49725       -2.67231        0.68008
H         -2.15970       -1.49595        1.83636
H         -0.42437       -1.51576        1.49445
C         -1.64025       -0.67600       -0.11023
C         -0.61373       -0.92716       -1.25545
H         -0.73115       -1.97131       -1.56460
H         -0.87779       -0.29026       -2.10590
C          0.81669       -0.66532       -0.86098
C          1.62529       -1.69504       -0.36283
H          1.22406       -2.70172       -0.28420
C          2.93558       -1.44989        0.02933
H          3.56338       -2.24545        0.41335
C          3.42416       -0.15221       -0.08639
C          2.65606        0.89707       -0.58157
H          3.06975        1.89521       -0.66509
C          1.34984        0.62692       -0.96897
H          0.73640        1.43218       -1.36724
N          4.80064        0.11843        0.32163
O          5.47297       -0.80764        0.75369
O          5.22588        1.26051        0.21593
C         -3.03951       -0.87217       -0.71058
H         -3.18499       -1.92781       -0.96219
H         -3.15590       -0.30485       -1.64229
C         -4.15370       -0.43136        0.19918
O         -4.02229        0.29357        1.16776
O         -5.34601       -0.90032       -0.19200
H         -6.03854       -0.55233        0.40391
C         -1.45687        0.75867        0.36907
O         -0.92635        1.07983        1.41631
O         -1.88189        1.65029       -0.52828
C         -1.70560        3.03232       -0.18093
H         -2.26836        3.26079        0.72685
H         -2.09640        3.59756       -1.02497
H         -0.64565        3.24934       -0.03134
