32
id_1595_cb.log	Energy: -328330.7729503
C         -4.29479       -1.30019       -0.49250
H         -3.74368       -1.80968       -1.29060
H         -4.86532       -0.48501       -0.95106
H         -5.00931       -2.01349       -0.07028
C         -3.34062       -0.76429        0.57010
H         -2.79561       -1.59781        1.03211
H         -3.91317       -0.28469        1.37442
C         -2.33535        0.23652        0.00456
H         -2.87547        1.08128       -0.44708
H         -1.77577       -0.24436       -0.80930
C         -1.36692        0.76082        1.06340
H         -0.76608       -0.07435        1.44808
H         -1.94479        1.14288        1.91468
C         -0.44355        1.87325        0.56639
H          0.20286        2.20553        1.39092
H         -1.04141        2.74196        0.26394
C          0.45338        1.48814       -0.61503
C          1.26723        0.24127       -0.31179
C          2.22562        0.24954        0.70927
H          2.39518        1.16015        1.28071
C          2.96568       -0.89246        1.00038
H          3.70466       -0.86946        1.79596
C          2.75935       -2.06605        0.27312
H          3.33685       -2.95698        0.50004
C          1.81136       -2.08535       -0.74623
H          1.64672       -2.99228       -1.32054
C          1.07155       -0.93752       -1.03404
H          0.33480       -0.95399       -1.83432
N          1.26816        2.65812       -0.97662
H          1.91593        2.37677       -1.71259
H          1.86076        2.88143       -0.17536
H         -0.18183        1.26324       -1.47918
