18
id_1098_ca.log	Energy: -493713.8684160
C          3.44629       -0.00002       -0.86187
H          3.14339       -0.89703       -1.39968
H          4.51851       -0.00002       -0.67377
H          3.14339        0.89695       -1.39973
N          2.74204        0.00002        0.46151
H          3.04087        0.82367        0.99960
C          1.28127        0.00001        0.33139
C          0.61834       -1.21523        0.24902
H          1.16895       -2.14890        0.31604
C         -0.76276       -1.21655        0.08614
H         -1.30727       -2.15183        0.02481
C         -1.43304       -0.00000        0.00658
C         -0.76277        1.21656        0.08612
H         -1.30728        2.15183        0.02479
C          0.61833        1.21524        0.24900
H          1.16893        2.14892        0.31601
Cl        -3.16698       -0.00001       -0.19509
H          3.04087       -0.82361        0.99965
