32
id_1221_ca.log	Energy: -398329.0854758
C         -4.60010        0.31233        0.02105
H         -5.16106        0.46301        0.94766
H         -4.98671       -0.57608       -0.48915
H         -4.75778        1.17945       -0.62448
C         -3.11763        0.16177        0.29823
C         -2.29235       -0.08055       -0.96515
H         -2.67722       -0.97554       -1.46855
H         -2.46984        0.77323       -1.62709
C         -0.81821       -0.23355       -0.67893
C         -0.21862       -1.48457       -0.64302
H         -0.80443       -2.37201       -0.86770
C          1.14101       -1.62125       -0.33085
H          1.58882       -2.60792       -0.31399
C          1.90405       -0.49875       -0.05045
C          1.30126        0.78155       -0.08071
C         -0.04435        0.90401       -0.38830
H         -0.51258        1.88278       -0.41490
O          2.13519        1.82112        0.20477
C          1.56967        3.12441        0.17882
H          2.38221        3.80786        0.42395
H          0.77143        3.22102        0.92234
H          1.17606        3.36206       -0.81505
O          3.23125       -0.50880        0.26140
C          3.87094       -1.77701        0.29218
H          3.41729       -2.42738        1.04747
H          4.91064       -1.58202        0.55386
H          3.82338       -2.26444       -0.68730
N         -2.92135       -1.00736        1.22576
H         -1.92535       -1.15538        1.43315
H         -3.28408       -1.86973        0.79830
H         -2.73028        1.02712        0.84140
H         -3.41647       -0.86345        2.11332
