21
id_151_ca.log	Energy: -229995.2053804
C          2.55416       -0.73791       -0.00511
H          3.39564       -0.04188       -0.01931
H          2.63494       -1.38815       -0.88227
H          2.65243       -1.37283        0.88148
C          1.24969        0.01675        0.00051
C          1.25709        1.41493        0.00059
H          2.21269        1.93140       -0.00159
C          0.07873        2.15392        0.00263
H          0.11031        3.23810        0.00331
C         -1.14567        1.49591        0.00143
H         -2.08279        2.04434        0.00063
C         -1.14010        0.11044        0.00037
C          0.01957       -0.66474        0.00342
C         -0.07877       -2.16795        0.00576
H         -0.58379       -2.53131       -0.89731
H         -0.65303       -2.52473        0.86891
H          0.90517       -2.63379        0.04627
N         -2.43573       -0.59059       -0.00517
H         -2.52302       -1.22555       -0.81131
H         -3.22011        0.07240       -0.05197
H         -2.56643       -1.16205        0.84181
