23
id_1196_cb.log	Energy: -254370.3558667
C          1.00926        2.56900       -0.00494
H          1.64748        2.70196        0.87528
H          0.27099        3.37471       -0.00963
H          1.64812        2.69161       -0.88614
C          0.32630        1.22212        0.00301
C         -1.06920        1.17788        0.00770
H         -1.63484        2.10736        0.00715
C         -1.75997       -0.03703        0.01153
C         -1.01820       -1.22256        0.00776
H         -1.54056       -2.17711        0.00734
C          0.37520       -1.19810        0.00288
C          1.06645        0.02744        0.00221
C          2.57522        0.02205       -0.00584
H          2.99168        1.03006        0.02216
H          2.96725       -0.47396       -0.90223
H          2.97561       -0.52637        0.85521
C          1.14236       -2.49541       -0.00486
H          1.78813       -2.58100        0.87680
H          1.79569       -2.56671       -0.88214
H          0.46434       -3.35236       -0.01430
N         -3.15864       -0.06707        0.08321
H         -3.55606       -0.90708       -0.32542
H         -3.59187        0.75608       -0.32326
