28
id_1753_ca.log	Energy: -256173.2887331
C         -2.22132        0.96966       -0.38995
H         -2.67140        1.32091        0.54832
H         -2.78801        1.42284       -1.20965
C         -2.32115       -0.55444       -0.45473
H         -1.95840       -0.90228       -1.43192
H         -3.36421       -0.87708       -0.37958
C         -1.51582       -1.20234        0.67511
H         -1.53965       -2.29577        0.60451
H         -1.96637       -0.93340        1.63753
C         -0.06766       -0.72344        0.72972
C          0.06296        0.80427        0.69386
C         -0.76080        1.42100       -0.44608
H         -0.69015        2.51175       -0.37120
H         -0.33864        1.15053       -1.42414
C          1.53929        1.22225        0.66909
H          1.60859        2.31109        0.57895
H          2.00465        0.94227        1.62230
C          2.30919        0.54959       -0.46884
H          3.37331        0.79430       -0.41043
H          1.95093        0.89692       -1.44477
C          2.17048       -0.96090       -0.39328
H          2.57151       -1.35800        0.54216
H          2.64202       -1.47014       -1.23399
N          0.71653       -1.32996       -0.41371
H          0.61866       -2.35111       -0.36950
H          0.42608       -1.11485        1.62421
H         -0.37942        1.14815        1.63777
H          0.31373       -1.04033       -1.31403
