28
id_1834_cb.log	Energy: -373872.6544360
C         -0.66389        2.57553       -0.02487
H          0.19223        3.23936       -0.10160
H         -1.64420        3.03803        0.04138
C         -0.51732        1.24198       -0.00632
C         -1.71623        0.35663        0.03243
C         -2.86911        0.68473       -0.69260
H         -2.86483        1.56727       -1.32605
C         -4.00567       -0.11683       -0.62587
H         -4.88739        0.15106       -1.20013
C         -4.00817       -1.26415        0.16526
H         -4.89271       -1.89161        0.21477
C         -2.86431       -1.60601        0.88538
H         -2.85702       -2.49777        1.50478
C         -1.72717       -0.80632        0.81498
H         -0.84048       -1.07861        1.38057
C          0.82912        0.61259       -0.01727
C          1.06720       -0.59112       -0.69639
H          0.24606       -1.09324       -1.20089
C          2.33463       -1.15420       -0.75192
H          2.49621       -2.08382       -1.29132
C          3.42024       -0.53394       -0.11546
C          3.18861        0.66233        0.58023
H          4.01497        1.14487        1.09553
C          1.91782        1.21809        0.62576
H          1.76105        2.13295        1.19081
N          4.70329       -1.06257       -0.21702
H          5.31558       -0.80238        0.54870
H          4.72309       -2.06404       -0.37743
