36
id_1644_cb.log	Energy: -719706.4069759
C         -4.28644       -1.74243        1.25932
H         -5.17723       -2.37197        1.35230
H         -4.26145       -1.06709        2.11981
H         -3.40334       -2.39182        1.30528
C         -4.30486       -0.97765       -0.06416
H         -5.16428       -0.29503       -0.06360
C         -4.43791       -1.93770       -1.23896
H         -3.58035       -2.62093       -1.26845
H         -4.47752       -1.39522       -2.18786
H         -5.34575       -2.54055       -1.14420
N         -3.11146       -0.14134       -0.27114
H         -2.30050       -0.76401       -0.29932
C         -2.89067        0.84989        0.78007
H         -3.84118        1.36187        0.96696
H         -2.53995        0.42974        1.73245
C         -1.88108        1.88647        0.26618
C         -0.49290        1.27572        0.16790
C          0.05681        0.92371       -1.06577
H         -0.49530        1.12871       -1.97664
C          1.30824        0.31826       -1.13474
H          1.73448        0.03449       -2.09198
C          2.00034        0.07418        0.04737
C          1.47698        0.42184        1.29168
H          2.03535        0.22070        2.20029
C          0.22533        1.02079        1.34156
H         -0.20114        1.29619        2.30273
S          3.60842       -0.66814       -0.03491
O          3.88874       -1.30603        1.26125
O          3.66919       -1.50401       -1.24489
C          4.72999        0.69178       -0.24155
H          4.63515        1.35462        0.62038
H          4.47846        1.21306       -1.16702
H          5.73695        0.27040       -0.29598
O         -2.33433        2.39091       -0.97538
H         -2.75509        1.61764       -1.40227
H         -1.84352        2.72289        0.97236
