21
id_1837_cb.log	Energy: -525913.9120975
C          2.27782       -1.07181        0.54531
H          2.76911       -2.02405        0.72467
C          0.94450       -0.90194        0.89511
H          0.37783       -1.71094        1.34399
C          0.33021        0.32158        0.66364
C          1.02742        1.38014        0.09663
H          0.53321        2.33346       -0.05745
C          2.35959        1.20378       -0.25778
H          2.91521        2.02483       -0.70188
C          3.00358       -0.02371       -0.04154
N          4.31952       -0.21700       -0.45522
H          4.86508        0.63777       -0.48813
H          4.80731       -0.93849        0.06523
O         -1.00229        0.49736        1.08109
C         -1.96270        0.47344        0.11038
C         -2.04407       -0.81475       -0.71286
H         -2.97618       -0.86769       -1.27745
F         -1.95966       -1.86054        0.14092
F         -0.99271       -0.86970       -1.56095
F         -3.13479        0.63631        0.74475
F         -1.81595        1.50335       -0.75410
