20
id_134_cb.log	Energy: -182645.2490439
C          2.65878        0.29641        0.16858
H          3.62098       -0.00151       -0.25567
H          2.75056        0.27086        1.25911
H          2.46474        1.33762       -0.12663
N          1.62217       -0.64637       -0.24866
H          1.54496       -0.58145       -1.26538
C          0.31361       -0.27284        0.28486
H          0.38884       -0.31711        1.38021
C         -0.22511        1.11953       -0.12041
H          0.13175        1.91163        0.54359
H          0.14309        1.35160       -1.12811
C         -1.76973        0.99467       -0.12073
H         -2.24229        1.68609        0.58193
H         -2.16688        1.22757       -1.11323
C         -2.06998       -0.47681        0.24038
H         -2.96857       -0.85803       -0.25213
H         -2.22006       -0.57542        1.32173
C         -0.79779       -1.22340       -0.15937
H         -0.75185       -1.33495       -1.25227
H         -0.70911       -2.21775        0.28769
