18
id_1_ca.log	Energy: -491276.5343079
C          3.38326       -1.11048       -0.00004
H          4.44684       -0.86887       -0.00006
H          3.14260       -1.71127       -0.88341
H          3.14265       -1.71129        0.88334
C          2.58179        0.16186        0.00000
O          3.14158        1.25538        0.00004
C          1.09393        0.07796        0.00001
C          0.33951        1.25857       -0.00001
H          0.84737        2.21819       -0.00003
C         -1.04752        1.21690       -0.00002
H         -1.61686        2.14218       -0.00003
C         -1.70642       -0.02009        0.00000
C         -0.96237       -1.20570        0.00002
H         -1.46497       -2.16895        0.00004
C          0.42647       -1.15334        0.00002
H          0.98406       -2.08469        0.00004
S         -3.47164       -0.14901       -0.00000
H         -3.71995        1.17189       -0.00002
