29
id_111_cb.log	Energy: -654736.2906475
C         -3.77657        1.22042        1.26114
H         -4.46945        1.92128        1.71723
C         -2.51768        1.01394        1.82382
H         -2.22792        1.54601        2.72527
C         -1.62724        0.10968        1.24408
H         -0.65408       -0.06916        1.69222
C         -1.99415       -0.56922        0.08147
C         -3.26113       -0.38313       -0.47583
H         -3.53705       -0.93340       -1.37034
C         -4.14746        0.51390        0.11402
H         -5.12865        0.66628       -0.32615
N         -1.10719       -1.50377       -0.53630
C          0.14862       -1.23328       -0.89415
O          0.92383       -2.10848       -1.35557
C          0.61777        0.19526       -0.82946
C         -0.01807        1.15264       -1.62338
H         -0.88976        0.86430       -2.20506
C          0.45482        2.46182       -1.67685
H         -0.05032        3.19149       -2.30234
C          1.57139        2.83134       -0.92990
H          1.94306        3.85041       -0.96358
C          2.21405        1.88753       -0.13227
H          3.07936        2.17382        0.45697
C          1.74295        0.57560       -0.08543
C          2.47827       -0.41062        0.78185
F          1.66615       -1.32353        1.34694
F          3.41893       -1.09960        0.10124
F          3.12572        0.19852        1.79446
O         -1.61452       -2.74881       -0.74550
