20
id_1383_ca.log	Energy: -240067.2010378
C          2.81561       -1.16858        0.00001
H          2.79650       -1.81180        0.88534
H          3.73907       -0.58959       -0.00014
H          2.79636       -1.81204       -0.88514
C          1.63898       -0.25119       -0.00001
C          1.70429        1.11713       -0.00001
H          2.66983        1.60608       -0.00001
C          0.50421        1.85549        0.00000
H          0.54738        2.93982        0.00000
C         -0.72187        1.23665        0.00001
H         -1.64390        1.80279        0.00001
C         -0.77277       -0.17607        0.00000
N          0.40939       -0.84476       -0.00001
N         -1.90265       -0.88347        0.00001
H         -1.84181       -1.89502       -0.00003
C         -3.21964       -0.26610       -0.00000
H         -3.36203        0.35086        0.89133
H         -3.95997       -1.06368        0.00001
H         -3.36202        0.35085       -0.89134
H          0.38062       -1.86465       -0.00001
