17
id_1669_cb.log	Energy: -267299.0086372
C         -0.91671        1.78920        0.12169
H         -1.19940        2.82726        0.26565
C          0.41138        1.45689       -0.14021
H          1.16557        2.23718       -0.20003
C          0.78889        0.12487       -0.33280
C         -0.18378       -0.87592       -0.25772
H          0.07028       -1.92233       -0.40325
C         -1.49576       -0.51797        0.00386
C         -1.89140        0.79689        0.19708
H         -2.93310        1.02385        0.39591
F         -2.42858       -1.48924        0.06950
C          2.23897       -0.24586       -0.54515
H          2.76326        0.59315       -1.01056
H          2.30414       -1.09430       -1.23200
N          2.95424       -0.60454        0.68790
H          2.44519       -1.37361        1.12484
H          2.85202        0.17520        1.33823
