20
id_1385_cb.log	Energy: -440525.8180534
C          1.94293       -2.43582       -0.08030
H          2.08062       -3.51189       -0.12124
C          3.04967       -1.59525        0.04711
H          4.05150       -2.00536        0.11719
C          2.86235       -0.21954        0.08280
H          3.69986        0.46064        0.19135
C          1.56687        0.28443        0.01082
C          0.42634       -0.52454       -0.11908
C          0.65959       -1.90649       -0.17488
H         -0.18703       -2.56989       -0.32115
C         -0.94331        0.00208       -0.27446
H         -1.06701        0.93810       -0.81361
C         -2.02944       -0.61995        0.19664
H         -1.95013       -1.53881        0.77391
C         -3.42438       -0.08870       -0.01495
O         -3.57491        0.98401       -0.66365
O         -4.36099       -0.77522        0.48767
N          1.43219        1.73741        0.11899
O          2.34853        2.43305       -0.29676
O          0.42277        2.19416        0.63505
