22
id_1161_cb.log	Energy: -407378.4424857
C         -3.75297       -0.35818        0.13623
H         -4.36228       -1.24506        0.30900
H         -3.96989        0.04951       -0.85647
H         -3.96916        0.39270        0.90311
O         -2.40160       -0.79610        0.22193
C         -1.41625        0.13935        0.06449
C         -1.68655        1.48252       -0.20670
H         -2.70573        1.83639       -0.30788
C         -0.62751        2.37904       -0.34907
H         -0.84042        3.42267       -0.56187
C          0.68631        1.94614       -0.22103
H          1.51030        2.64434       -0.33010
C          0.95473        0.59633        0.03397
C         -0.09154       -0.32422        0.19027
C          0.17400       -1.78366        0.48940
H         -0.72297       -2.26074        0.88257
H          0.96346       -1.86710        1.24552
O          0.54963       -2.51169       -0.68032
H          1.41117       -2.11437       -0.93143
C          2.41175        0.16684        0.10469
O          2.73422       -0.92231       -0.45663
O          3.21447        0.93968        0.68928
