21
id_1923_ca.log	Energy: -182947.6730131
C         -1.86304       -1.00388        0.00000
H         -2.14525        0.05433        0.00000
H         -2.31020       -1.46560        0.88618
H         -2.31020       -1.46560       -0.88618
C         -0.34701       -1.20380        0.00000
H         -0.15037       -2.28139        0.00000
C          0.31689       -0.61167        1.25270
H          1.35528       -0.95901        1.32032
H         -0.19920       -0.94655        2.15788
C          0.31689        0.90914        1.24754
H          0.86658        1.32231        2.09337
H         -0.69018        1.33070        1.23687
N          0.98998        1.40339       -0.00000
H          1.00791        2.42850       -0.00000
C          0.31689        0.90914       -1.24754
H         -0.69018        1.33070       -1.23687
H          0.86658        1.32231       -2.09337
C          0.31689       -0.61167       -1.25270
H         -0.19920       -0.94655       -2.15788
H          1.35528       -0.95901       -1.32032
H          1.96830        1.08750       -0.00000
