22
id_1458_ca.log	Energy: -274796.7064080
C         -2.67572       -1.70045       -0.00358
H         -2.62458       -2.33724       -0.89214
H         -3.62097       -1.15847       -0.00064
H         -2.62426       -2.34608        0.87859
C         -1.53765       -0.74149        0.00093
C         -1.65369        0.62427        0.01299
H         -2.62986        1.09108        0.02073
C         -0.47551        1.39611        0.01463
N          0.74020        0.85397        0.01014
C          0.83116       -0.48113       -0.00007
N         -0.28447       -1.26610       -0.00553
N          2.02238       -1.06770       -0.00381
H          2.06823       -2.08027       -0.01188
C          3.26439       -0.30800        0.00177
H          4.08561       -1.02197       -0.00207
H          3.33263        0.31541        0.89541
H          3.33402        0.32670       -0.88379
C         -0.55270        2.88758       -0.00912
H          0.25086        3.32096        0.58932
H         -1.52117        3.23835        0.35027
H         -0.42429        3.22993       -1.04253
H         -0.17465       -2.28083       -0.01207
