20
id_1381_ca.log	Energy: -416919.4355861
C          2.71958       -1.45472       -0.10745
H          3.46225       -2.24035       -0.20652
C          3.08832       -0.11996       -0.26443
H          4.11681        0.14939       -0.48000
C          2.12428        0.87350       -0.14567
H          2.37915        1.92088       -0.26224
C          0.81385        0.50982        0.15213
C          0.40309       -0.82100        0.31788
C          1.39571       -1.79246        0.16846
H          1.11565       -2.83716        0.26835
C         -1.00801       -1.26046        0.60821
H         -1.31399       -0.99958        1.62495
H         -1.06765       -2.35173        0.52598
C         -2.02883       -0.70074       -0.35125
O         -1.77807       -0.14637       -1.40390
O         -3.27750       -0.91277        0.07764
H         -3.90766       -0.57484       -0.58896
N         -0.14514        1.60837        0.28580
O         -1.11399        1.45415        1.01688
O          0.06750        2.63884       -0.33429
