28
id_1002_ca.log	Energy: -279437.6868242
C         -3.33781       -0.79944        0.48769
H         -4.25530       -0.55894       -0.06096
H         -3.30294       -0.13864        1.36045
H         -3.35990       -1.84248        0.80563
C         -2.15449       -0.54280       -0.40305
O         -1.42562       -1.44930       -0.78061
C         -1.86875        0.89358       -0.77549
H         -1.25818        0.89962       -1.68280
H         -2.80783        1.41603       -0.98264
C         -1.13933        1.61483        0.37710
H         -0.85590        2.61312        0.02816
H         -1.82911        1.75111        1.21570
C          0.10021        0.87096        0.88222
H         -0.20248       -0.08699        1.31852
H          0.57405        1.45755        1.67766
C          1.10074        0.64699       -0.23992
H          1.36178        1.59360       -0.72046
H          0.72621       -0.04628       -0.99724
N          2.38878        0.05184        0.25052
C          2.19602       -1.30657        0.83489
H          3.17649       -1.72098        1.06735
H          1.68518       -1.92184        0.09229
H          1.60161       -1.22744        1.74300
C          3.40046        0.01638       -0.84294
H          3.54062        1.02880       -1.22012
H          3.02182       -0.63706       -1.62995
H          4.33385       -0.37375       -0.43900
H          2.75123        0.66261        0.99269
