22
id_1908_ca.log	Energy: -360480.4292417
C         -2.58993       -1.38123       -0.10770
H         -3.23625       -2.24490       -0.23443
C         -3.06509       -0.10042       -0.38001
H         -4.08550        0.04512       -0.72255
C         -2.22055        0.99832       -0.21455
H         -2.58515        2.00015       -0.42995
C         -0.90570        0.83477        0.22662
C         -0.42765       -0.45867        0.50384
C         -1.27615       -1.55321        0.33127
H         -0.90254       -2.55145        0.54814
C          0.99010       -0.67303        0.96723
H          1.08100       -1.63916        1.47992
H          1.31583        0.09647        1.67329
C          1.97547       -0.71395       -0.17352
O          1.70816       -0.98276       -1.32967
O          3.23065       -0.47689        0.23524
H          3.83574       -0.56147       -0.52737
C         -0.01730        2.04293        0.40674
H          0.29091        2.14313        1.45254
H         -0.56647        2.94918        0.12788
O          1.19865        1.95055       -0.33674
H          0.97358        1.86257       -1.27756
