10
id_1574_cb.log	Energy: -373161.9902335
C         -1.17892        0.50068        0.33652
H         -1.87941        1.31671        0.13109
H         -1.05742        0.44375        1.42694
C          0.13702        0.90463       -0.28556
H          0.49988        1.84871        0.11940
H          0.06363        0.96284       -1.37152
Cl         1.42611       -0.32545        0.06531
N         -1.69985       -0.72302       -0.27079
H         -2.61111       -0.91226        0.14310
H         -1.10903       -1.49788        0.03045
