23
id_1675_ca.log	Energy: -358272.1886601
C         -2.76188       -1.39985        1.12560
H         -3.54328       -1.56908        1.86426
H         -1.85997       -1.02707        1.60784
H         -2.55238       -2.31411        0.57092
N         -3.24862       -0.37459        0.16078
H         -3.41206        0.51099        0.65590
C         -2.32524       -0.13078       -1.00032
H         -2.21017       -1.08817       -1.51014
H         -2.83901        0.57284       -1.65679
C         -1.00243        0.41459       -0.53887
C         -0.89240        1.75272       -0.14735
H         -1.76892        2.39418       -0.19276
C          0.32310        2.26902        0.29331
H          0.39714        3.30830        0.59283
C          1.45019        1.45583        0.34255
H          2.40807        1.83551        0.67597
C          1.31780        0.13154       -0.05373
C          0.11677       -0.41126       -0.49188
H          0.05726       -1.45184       -0.79093
N          2.49715       -0.73513       -0.00845
O          2.37166       -1.89889       -0.35380
O          3.55153       -0.25404        0.37319
H         -4.15738       -0.67086       -0.21444
