25
id_1663_cb.log	Energy: -382635.7668702
C          2.32876       -1.78182       -0.65541
H          2.00224       -2.55820        0.04299
H          3.06202       -2.21925       -1.33934
H          1.45864       -1.46686       -1.25462
N          2.95161       -0.68531        0.07642
C          3.34996        0.36083       -0.85774
H          4.09875       -0.04004       -1.54726
H          3.79645        1.19767       -0.31234
H          2.51257        0.74775       -1.46145
C          2.07168       -0.16693        1.13211
H          1.86917       -0.98896        1.82605
H          2.62628        0.60445        1.67596
C          0.75404        0.41629        0.66114
C          0.64760        1.76851        0.31633
H          1.51707        2.41128        0.42967
C         -0.54812        2.30584       -0.15806
H         -0.60880        3.35745       -0.41625
C         -1.67045        1.49842       -0.29731
H         -2.61207        1.89078       -0.66055
C         -1.55114        0.15888        0.05289
C         -0.37021       -0.39771        0.52828
H         -0.33031       -1.44805        0.79684
N         -2.72528       -0.70416       -0.07863
O         -3.76114       -0.21278       -0.49940
O         -2.62000       -1.87917        0.23719
