20
id_164_ca.log	Energy: -333613.1825970
C         -0.82307        2.29517       -0.14694
H         -0.13295        3.09508       -0.42054
H         -1.28506        2.54342        0.81192
H         -1.62118        2.24293       -0.89103
C         -0.06720        0.99810       -0.05398
C          1.33069        1.03064       -0.06508
H          1.84024        1.98709       -0.13768
C          2.06454       -0.13993        0.00753
C          1.47763       -1.39396        0.08155
H          2.08006       -2.29424        0.13610
C          0.09356       -1.45619        0.07398
H         -0.41865       -2.40911        0.12014
C         -0.64336       -0.27725        0.01600
N         -2.10077       -0.43605        0.02341
O         -2.78400        0.48130        0.44541
O         -2.56151       -1.49013       -0.38497
N          3.52840       -0.04509        0.02301
H          3.85915        0.80219       -0.45792
H          3.96389       -0.85712       -0.43575
H          3.88839       -0.01107        0.98795
