16
id_1718_cb.log	Energy: -321705.8529437
C          0.67811        2.42460       -0.00000
H          1.31962        2.50855       -0.88232
H          1.31965        2.50853        0.88229
H         -0.02594        3.25963        0.00002
C         -0.07197        1.13482       -0.00000
C          0.39476       -0.14320        0.00000
O         -0.70227       -0.98109        0.00000
C         -1.77466       -0.16721       -0.00000
N         -1.46443        1.09623       -0.00001
C         -3.11701       -0.79509        0.00000
H         -3.24196       -1.42447       -0.88615
H         -3.88208       -0.01803       -0.00006
H         -3.24200       -1.42437        0.88622
C          1.75538       -0.74643        0.00000
O          2.71761        0.06958       -0.00000
O          1.83667       -2.00453        0.00001
