35
id_1656_ca.log	Energy: -422987.5675302
C          0.59437       -2.10606        0.44716
H          0.05794       -2.41180       -0.45665
H         -0.14900       -1.76970        1.18303
H          1.07467       -2.99224        0.86896
C          1.62464       -1.03885        0.16702
C          2.84849       -1.07470        0.84051
H          3.03513       -1.88311        1.54246
C          3.82576       -0.10625        0.62659
H          4.76734       -0.16198        1.16414
C          3.59439        0.92607       -0.27821
H          4.34965        1.68508       -0.45442
C          2.38095        0.97759       -0.95749
H          2.18652        1.77875       -1.66580
C          1.39722        0.00799       -0.74651
C          0.10480        0.10653       -1.51269
H         -0.15158       -0.83654       -2.00304
H          0.14130        0.89581       -2.26704
N         -1.05505        0.43820       -0.60923
C         -2.37671        0.14401       -1.26293
H         -3.10326        0.87596       -0.90806
H         -2.25750        0.25338       -2.34184
C         -2.80792       -1.25274       -0.86951
H         -2.09491       -1.99707       -1.23907
H         -3.78931       -1.45909       -1.30808
O         -2.86571       -1.27877        0.55531
H         -2.63359       -2.16989        0.85951
C         -0.97286        1.81462       -0.02838
H          0.07278        1.98081        0.23741
H         -1.27704        2.52750       -0.79770
C         -1.84573        1.89177        1.22006
H         -2.91033        1.90929        0.96749
H         -1.60873        2.82552        1.73560
O         -1.55423        0.80958        2.09301
H         -2.17132        0.08498        1.88020
H         -0.99831       -0.18962        0.20715
