20
id_1200_cb.log	Energy: -632545.9797396
C         -2.97075       -0.00315        1.57826
H         -2.56976       -0.90528        2.04481
H         -4.06395       -0.00366        1.60109
H         -2.57051        0.89749        2.04833
S         -2.49393        0.00030       -0.13166
O         -2.95140       -1.26052       -0.74411
O         -2.95135        1.26350       -0.73921
C         -0.71577        0.00025       -0.11145
C         -0.04213        1.21932       -0.08433
H         -0.58996        2.15652       -0.10746
C          1.34898        1.20893       -0.03532
H          1.89417        2.14649       -0.01787
C          2.05057        0.00001       -0.01151
C          1.34879       -1.20881       -0.03600
H          1.89384       -2.14646       -0.01906
C         -0.04230       -1.21895       -0.08509
H         -0.59025       -2.15609       -0.10881
C          3.57605       -0.00012        0.04185
O          4.14995       -1.12151        0.06199
O          4.15013        1.12118        0.06222
