22
id_1371_cb.log	Energy: -264419.5421993
C         -2.20786        1.19944       -0.64436
H         -1.32469        1.25708       -1.30159
H         -2.21740        2.08573       -0.00279
H         -3.09748        1.22505       -1.28070
N         -2.23881       -0.00670        0.17406
C         -2.18500       -1.18116       -0.68814
H         -3.07061       -1.19662       -1.33031
H         -2.18452       -2.09055       -0.07979
H         -1.29708       -1.20134       -1.34143
C         -1.15472       -0.01563        1.16737
H         -1.29576        0.85424        1.81739
H         -1.27840       -0.91482        1.78020
C          0.25094        0.01057        0.60742
C          0.91323        1.20565        0.32396
H          0.43400        2.15739        0.54233
C          2.18897        1.16315       -0.22809
H          2.73472        2.07174       -0.45846
C          2.76229       -0.07912       -0.47784
H          3.75841       -0.14442       -0.90762
N          2.15462       -1.24150       -0.21039
C          0.92848       -1.17576        0.31906
H          0.45012       -2.12894        0.54071
