55
id_132_ca.log	Energy: -524630.5485932
C          2.98240       -2.10995       -1.55587
H          3.74542       -2.32689       -2.31188
H          2.41661       -1.23805       -1.90617
H          2.29598       -2.96305       -1.52070
C          3.62462       -1.85862       -0.19319
H          4.11929       -2.77532        0.14818
H          2.84674       -1.64010        0.55132
C          4.64166       -0.71507       -0.20122
H          5.48944       -0.99218       -0.84115
H          5.04121       -0.59264        0.81369
C          4.07227        0.62603       -0.67384
H          3.85715        0.58621       -1.74983
H          4.83997        1.40035       -0.54523
C          2.80633        1.05069        0.06904
H          2.95681        0.93164        1.15245
H          1.97807        0.37976       -0.20007
C          2.40862        2.49808       -0.21881
H          2.39936        2.66763       -1.30508
H          3.18035        3.16115        0.19098
C          1.04130        2.86818        0.36100
H          0.94747        3.95785        0.44401
H          0.97176        2.47308        1.38455
C         -0.12351        2.35371       -0.48716
H          0.03379        1.29350       -0.73839
H         -0.12310        2.88823       -1.44383
C         -1.48464        2.54462        0.19077
H         -2.29292        2.48665       -0.54754
H         -1.53647        3.54552        0.63314
C         -1.73916        1.53504        1.30152
H         -0.86245        1.42482        1.94349
H         -2.59401        1.79821        1.92797
N         -2.04070        0.17886        0.72137
C         -3.47486        0.03862        0.30866
H         -4.03937       -0.35344        1.15660
H         -3.84904        1.03277        0.05300
C         -3.55159       -0.86004       -0.91383
C         -4.97760       -0.96623       -1.42259
H         -5.36476        0.02756       -1.66753
H         -5.62452       -1.42355       -0.66830
H         -5.00520       -1.58512       -2.32359
O         -2.69232       -0.24191       -1.87202
H         -2.46849       -0.90276       -2.54608
C         -1.58282       -0.94697        1.59662
H         -1.74986       -0.66225        2.63717
H         -2.19174       -1.82266        1.35847
C         -0.12438       -1.26031        1.30533
C          0.32140       -2.47419        2.10187
H          1.35780       -2.72609        1.86047
H          0.25562       -2.27471        3.17545
H         -0.31200       -3.33351        1.86078
O         -0.07838       -1.49804       -0.10161
H          0.85301       -1.54712       -0.37169
H         -3.16480       -1.85722       -0.66743
H          0.50578       -0.39227        1.54934
H         -1.50255        0.07996       -0.15690
