24
id_135_ca.log	Energy: -207606.6757083
C          2.35327        0.30902        0.22056
H          3.35986        0.53532       -0.14743
H          2.41270        0.26763        1.31689
C          1.88682       -1.04811       -0.30780
H          1.90646       -1.03419       -1.40600
H          2.56998       -1.84091        0.01497
C          0.46616       -1.36339        0.16310
H          0.13116       -2.32503       -0.24243
H          0.45867       -1.45396        1.25889
C         -0.51780       -0.25861       -0.24192
H         -0.55673       -0.21654       -1.34123
C         -0.04342        1.10094        0.28507
H         -0.06947        1.07750        1.38421
H         -0.71864        1.90298       -0.03691
C          1.37847        1.41436       -0.18661
H          1.70018        2.37920        0.21935
H          1.37889        1.51059       -1.28093
C         -1.90165       -0.62964        0.26678
H         -1.93920       -0.64282        1.35812
H         -2.21852       -1.60135       -0.11460
N         -2.93737        0.35646       -0.18365
H         -2.78506        1.28231        0.23047
H         -2.91964        0.46581       -1.20458
H         -3.88022        0.05086        0.08166
