31
id_1029_cb.log	Energy: -257359.7460655
C         -0.14564        2.58640       -0.14103
H          0.82640        2.72877        0.33628
H         -0.81080        3.39040        0.19248
H         -0.00840        2.69317       -1.22435
C         -0.75828        1.22621        0.19302
H         -0.80205        1.13561        1.28609
C         -2.19395        1.18617       -0.34059
H         -2.73308        0.28157       -0.04980
H         -2.19548        1.24075       -1.43657
H         -2.76174        2.04349        0.03652
C          0.07405        0.05851       -0.38064
H         -0.07373        0.09407       -1.47068
C         -0.38354       -1.35743        0.09712
H          0.52740       -1.96671        0.15714
C         -1.28110       -2.04726       -0.93416
H         -0.77948       -2.10732       -1.90654
H         -2.22619       -1.51375       -1.07906
H         -1.52213       -3.06789       -0.61631
C         -1.01709       -1.41095        1.49125
H         -1.16623       -2.45568        1.78606
H         -1.99578       -0.92096        1.52088
H         -0.38427       -0.93927        2.24966
N          1.52228        0.29434       -0.20422
C          1.95679        0.20095        1.18125
H          1.89278       -0.82195        1.59170
H          1.36051        0.86383        1.81544
H          3.00311        0.51678        1.25336
C          2.33311       -0.58196       -1.03545
H          1.99362       -0.52784       -2.07466
H          2.31697       -1.64046       -0.72439
H          3.37652       -0.25084       -0.99822
