13
id_1508_cb.log	Energy: -239760.7592127
C          0.73629       -1.20281       -0.00000
H          1.26068       -2.15628       -0.00001
C         -0.65895       -1.18784        0.00002
H         -1.21759       -2.12242        0.00003
C         -1.34689        0.02303        0.00002
C         -0.63037        1.21751        0.00001
H         -1.17044        2.16170        0.00001
C          0.76324        1.20033       -0.00002
H          1.31008        2.14112       -0.00003
C          1.50641       -0.01049       -0.00003
O          2.82551       -0.02576       -0.00005
O         -2.73791        0.09375        0.00004
H         -3.10191       -0.80637        0.00005
