34
id_105_cb.log	Energy: -633562.2129386
C         -1.47528       -1.63535        1.01050
H         -1.56298       -2.65818        0.62943
H         -2.22654       -1.49067        1.79337
H         -0.48777       -1.51968        1.46531
C         -1.69494       -0.65165       -0.13787
C         -0.65920       -0.89062       -1.27814
H         -0.77845       -1.92989       -1.60278
H         -0.91465       -0.24179       -2.12223
C          0.77088       -0.64420       -0.87292
C          1.56916       -1.68783       -0.38594
H          1.15910       -2.69222       -0.32506
C          2.87932       -1.46042        0.01652
H          3.49811       -2.26748        0.39111
C          3.38014       -0.16542       -0.07683
C          2.62297        0.89777       -0.55948
H          3.04558        1.89350       -0.62562
C          1.31644        0.64496       -0.95755
H          0.71250        1.46144       -1.34696
N          4.75657        0.08652        0.34099
O          5.41856       -0.85152        0.76373
O          5.19356        1.22584        0.25266
C         -3.09567       -0.84026       -0.73883
H         -3.19684       -1.87876       -1.07009
H         -3.21415       -0.20828       -1.62801
C         -4.25309       -0.49972        0.20447
O         -4.05823        0.37733        1.09145
O         -5.34936       -1.09666        0.00431
C         -1.50941        0.77348        0.36071
O         -1.01110        1.08267        1.42924
O         -1.86882        1.68316       -0.55014
C         -1.68330        3.05601       -0.17931
H         -2.28603        3.28780        0.70187
H         -2.02033        3.63868       -1.03490
H         -0.62847        3.25289        0.02578
