21
id_1482_cb.log	Energy: -266545.5975289
C         -3.18402       -0.27677        0.75589
H         -4.26092       -0.38478        0.58801
H         -3.02222        0.62056        1.36323
H         -2.84106       -1.14232        1.33339
C         -2.42689       -0.17591       -0.57275
H         -2.80630        0.68229       -1.13941
H         -2.62692       -1.07336       -1.16982
C         -0.93630       -0.02865       -0.36256
C         -0.12496       -1.16687       -0.25978
H         -0.56240       -2.15773       -0.37539
C          1.24872       -1.03194       -0.01254
C          1.80173        0.24090        0.12273
H          2.87076        0.34884        0.30446
C          1.01676        1.42391        0.02621
C         -0.37120        1.23929       -0.22104
H         -1.00146        2.12463       -0.30717
O          1.54777        2.61716        0.15096
C          2.11693       -2.25911        0.13359
H          1.78729       -3.06121       -0.53444
H          2.07157       -2.64890        1.15775
H          3.16487       -2.03438       -0.08686
