30
id_1563_cb.log	Energy: -280474.4056189
C          1.55158        1.92655       -0.77616
H          2.08960        1.53955       -1.64898
H          1.97946        2.90381       -0.53260
H          0.50802        2.08950       -1.06843
C          1.65034        0.98538        0.42109
H          1.05271        1.39057        1.24224
H          2.68728        0.95606        0.77904
C          1.22365       -0.47938        0.13668
C          1.02510       -1.19420        1.47097
H          0.25018       -0.71221        2.07595
H          1.96023       -1.15712        2.04018
H          0.75603       -2.24507        1.32188
C          2.35385       -1.17853       -0.62896
H          2.10559       -2.23052       -0.79961
H          3.28965       -1.12796       -0.06315
H          2.52079       -0.70853       -1.60505
N          0.03292       -0.61895       -0.73359
H          0.22233       -0.06584       -1.56834
C         -1.33424       -0.28720       -0.28970
C         -2.13014        0.05124       -1.56049
H         -2.07850       -0.79400       -2.25373
H         -1.71488        0.93734       -2.05171
H         -3.17753        0.24551       -1.31696
C         -2.00264       -1.49920        0.38162
H         -1.51744       -1.77304        1.31939
H         -1.95500       -2.35242       -0.30142
H         -3.05258       -1.27458        0.59331
C         -1.45289        0.87549        0.62770
C         -1.61941        1.81105        1.37382
H         -1.74761        2.64431        2.03369
