14
id_1329_cb.log	Energy: -133322.1340389
C          1.93657       -0.45343        0.11179
H          2.00543       -0.13511        1.15777
H          2.73364        0.04466       -0.45000
H          2.11795       -1.53215        0.07009
C          0.58355       -0.11405       -0.45024
C         -0.59984       -0.03661        0.42276
N         -0.01898        1.19325       -0.14213
H          0.55649        1.63010        0.57920
C         -1.97192       -0.42230       -0.05521
H         -2.06637       -0.24600       -1.13107
H         -2.74620        0.15938        0.45593
H         -2.16293       -1.48297        0.13636
H          0.41653       -0.42696       -1.47889
H         -0.41177       -0.20539        1.48090
