20
id_1926_ca.log	Energy: -276306.2326890
C         -1.20080        1.16785       -0.75930
H         -1.84653        2.02168       -0.98781
H         -0.60108        0.96924       -1.65661
C         -0.28953        1.50807        0.42355
H         -0.90077        1.85794        1.26468
H          0.40508        2.31347        0.16362
C          0.49186        0.27036        0.91838
C         -0.48987       -0.87136        1.20034
H         -1.17915       -0.56041        1.99774
H          0.03880       -1.77001        1.53007
N         -1.21155       -1.18185       -0.04730
H         -1.78171       -2.01415        0.08918
C         -2.06689       -0.05004       -0.45063
H         -2.77434        0.19312        0.35719
H         -2.64315       -0.34882       -1.32967
C          1.53708       -0.12041       -0.11405
O          2.66480        0.35550       -0.12386
O          1.16784       -0.99338       -1.04610
H          0.17494       -1.23971       -0.87791
H          1.03650        0.52684        1.83054
