21
id_1955_ca.log	Energy: -464098.6667185
C         -1.70582        2.29373       -0.30991
H         -2.24578        3.20183       -0.55627
C         -2.38411        1.07492       -0.27730
H         -3.44319        1.00891       -0.49314
C         -1.64827       -0.05459        0.04373
C         -0.28444       -0.04030        0.33116
H          0.21939       -0.96820        0.57326
C          0.36092        1.19155        0.29265
C         -0.34791        2.35578       -0.02950
H          0.18635        3.30053       -0.05264
O          1.69298        1.36741        0.54952
C          2.46356        0.24697        0.92734
H          3.41327        0.64326        1.29556
H          1.99326       -0.32364        1.73465
C          2.78910       -0.69520       -0.21452
O          3.33970       -1.76226       -0.03015
O          2.44617       -0.22975       -1.41264
H          2.69690       -0.88224       -2.09706
N         -2.33670       -1.34922        0.08326
O         -3.52711       -1.38035       -0.19046
O         -1.69194       -2.34169        0.38758
