33
id_1597_ca.log	Energy: -445513.0410987
C          4.57531       -1.41706       -0.33161
H          4.54251       -1.11596       -1.38434
H          5.13317       -2.34856       -0.23613
H          5.06679       -0.63436        0.25629
O          3.27225       -1.68643        0.16323
C          2.37514       -0.65201        0.13361
C          2.66026        0.62747       -0.32752
H          3.64438        0.88595       -0.69990
C          1.66304        1.60992       -0.31468
H          1.90475        2.60153       -0.67866
C          0.38946        1.31453        0.15519
C          0.09628        0.02183        0.63304
C          1.09142       -0.94401        0.61182
H          0.88311       -1.94694        0.97580
C         -1.29405       -0.30552        1.11677
H         -1.67644        0.49618        1.75616
H         -1.27467       -1.22727        1.70907
C         -2.28545       -0.47745       -0.02892
C         -3.68876       -0.79293        0.44916
H         -4.04790        0.04752        1.05431
H         -3.67075       -1.69402        1.07570
O         -4.48671       -0.98813       -0.70726
H         -5.29663       -1.44921       -0.44089
N         -1.85537       -1.61284       -0.91116
H         -1.70043       -2.46647       -0.35840
H         -0.98574       -1.40021       -1.41353
O         -0.64442        2.21029        0.19654
C         -0.37879        3.52534       -0.26953
H         -1.31031        4.07915       -0.15447
H         -0.08475        3.51634       -1.32442
H          0.40743        4.00159        0.32572
H         -2.30233        0.40586       -0.67132
H         -2.59683       -1.80774       -1.59688
