22
id_1487_ca.log	Energy: -324245.0681589
C          2.51164       -2.75561        0.00000
H          1.91496       -3.66487        0.00000
H          3.13482       -2.71130        0.89343
H          3.13482       -2.71130       -0.89343
N          1.60972       -1.58936        0.00000
C          2.18627       -0.34041        0.00000
H          3.26928       -0.32685        0.00000
C          1.41324        0.77976        0.00000
H          1.88946        1.75312        0.00000
C          0.00000        0.66107        0.00000
C         -0.57438       -0.63839        0.00000
C          0.29550       -1.74643        0.00000
H         -0.08380       -2.76307        0.00000
C         -1.98025       -0.81647        0.00000
H         -2.39277       -1.82029        0.00000
C         -2.78565        0.29608        0.00000
H         -3.86549        0.18773        0.00000
C         -2.23423        1.59843        0.00000
H         -2.88877        2.46607        0.00000
C         -0.86954        1.78495        0.00000
O         -0.27562        3.00868        0.00000
H         -0.95120        3.70906        0.00000
