16
id_1966_ca.log	Energy: -319447.3426870
C          2.61000       -0.96420       -0.00001
H          3.49035       -1.59793       -0.00001
C          1.34470       -1.49641        0.00000
H          1.16681       -2.56790        0.00000
C          0.24303       -0.61364        0.00001
C          0.50120        0.77574        0.00001
N          1.75303        1.29195        0.00000
C          2.76131        0.44128       -0.00001
H          3.75881        0.87221       -0.00001
N         -0.53246        1.67714        0.00000
C         -1.73879        1.19326       -0.00001
H         -2.58379        1.87643       -0.00001
C         -1.98460       -0.22167        0.00001
N         -1.03465       -1.10671        0.00001
O         -3.27723       -0.59240       -0.00001
H         -3.33675       -1.56646       -0.00002
