20
id_181_cb.log	Energy: -229705.1846881
C         -0.69296        2.16182       -0.14072
H         -1.12589        2.29498       -1.13834
H         -0.11633        3.05895        0.09811
H         -1.52763        2.10085        0.56601
C          0.18484        0.93604       -0.08124
C          1.55060        1.06933        0.18179
H          1.95921        2.06336        0.34658
C          2.39278       -0.04027        0.23435
H          3.45079        0.09178        0.44022
C          1.87102       -1.31254        0.01899
H          2.51621       -2.18520        0.05317
C          0.51077       -1.45689       -0.24666
H          0.09509       -2.44748       -0.41977
C         -0.34152       -0.35129       -0.29953
C         -1.82086       -0.57236       -0.52759
H         -1.95701       -1.48268       -1.11837
H         -2.24642        0.25044       -1.10833
N         -2.61562       -0.71702        0.70384
H         -2.48545        0.12787        1.26100
H         -2.18125       -1.45685        1.25649
