44
id_1353_cb.log	Energy: -972929.9529094
C         -5.26290       -0.61630       -1.92128
H         -5.15846       -0.30341       -2.96587
H         -5.96292        0.07208       -1.43268
H         -5.71104       -1.61576       -1.90918
C         -3.91813       -0.60527       -1.20428
H         -3.23739       -1.30434       -1.71368
C         -4.04615       -1.06028        0.25058
H         -4.42316       -2.08883        0.29638
H         -4.77522       -0.41989        0.76558
C         -2.70537       -0.98038        0.97329
H         -2.82220       -1.29439        2.01443
H         -2.00642       -1.68851        0.49110
N         -2.18300        0.39005        0.94179
C         -1.96397        0.79895       -0.44851
H         -1.23307        0.13637       -0.94979
H         -1.53378        1.80739       -0.44691
C         -3.27040        0.78026       -1.23520
H         -3.96588        1.51099       -0.80021
H         -3.07682        1.08797       -2.26961
C         -0.95493        0.57974        1.74455
C         -1.22459        0.44043        3.24080
H         -2.07518        1.06086        3.53754
H         -1.43175       -0.59560        3.52593
H         -0.34379        0.76709        3.80245
C          0.15524       -0.35676        1.32957
H          0.01821       -1.39337        1.64105
C          1.23821       -0.07024        0.58188
C          2.15795       -1.12426        0.11714
C          3.47940       -1.00212       -0.22739
H          4.01159       -0.05826       -0.18416
C          4.07639       -2.23661       -0.62112
H          5.11341       -2.34022       -0.91829
C          3.19826       -3.27857       -0.58220
H          3.37582       -4.31676       -0.83076
S          1.63057       -2.77300       -0.07016
C          1.57659        1.31419        0.18454
C          1.72841        2.40987        0.99026
H          1.64109        2.35391        2.07034
C          2.01561        3.60689        0.26659
H          2.17295        4.57324        0.73118
C          2.08018        3.39997       -1.07918
H          2.28495        4.12117       -1.85954
S          1.80116        1.74742       -1.48611
H         -0.64638        1.61013        1.55217
