20
id_1868_ca.log	Energy: -323357.4806654
C          0.34776        1.18407        0.50553
H         -0.15890        2.12470        0.70345
C          1.68485        1.19462        0.11718
H          2.22935        2.12871        0.00922
C          2.31544       -0.01799       -0.12176
C          1.65873       -1.23186        0.01413
H          2.18195       -2.16537       -0.17442
C          0.32096       -1.22411        0.40321
H         -0.20724       -2.16675        0.51959
C         -0.34935       -0.02107        0.65039
C         -1.81355       -0.02409        1.01645
H         -2.04614        0.85154        1.62883
H         -2.06128       -0.93110        1.57254
C         -2.65374        0.03399       -0.27170
O         -3.14345       -1.04719       -0.70044
O         -2.76696        1.16003       -0.83131
N          3.71984       -0.01148       -0.55471
H          3.79980        0.11610       -1.57264
H          4.19299       -0.89309       -0.31929
H          4.24728        0.75156       -0.11094
