20
id_1543_cb.log	Energy: -370182.5272721
C         -0.49778       -2.59268       -0.11910
H          0.24655       -3.34332       -0.39501
H         -1.29480       -2.59958       -0.86812
H         -0.94684       -2.88451        0.83396
C          0.17564       -1.24425       -0.02556
C          1.55378       -1.21393       -0.04249
H          2.10483       -2.14958       -0.10191
C          2.31182        0.00000        0.00001
C          1.55378        1.21394        0.04248
H          2.10483        2.14958        0.10189
C          0.17564        1.24425        0.02554
C         -0.52317        0.00000       -0.00001
N         -1.93987       -0.00000        0.00001
O         -2.55568        0.95853       -0.48814
O         -2.55567       -0.95853        0.48818
C         -0.49778        2.59268        0.11906
H         -1.29477        2.59960        0.86811
H         -0.94687        2.88449       -0.83400
H          0.24656        3.34333        0.39493
O          3.59235       -0.00000        0.00002
