23
id_192_ca.log	Energy: -405332.3594472
C         -1.98821        1.68741        0.00001
H         -2.10368        2.76654        0.00002
C         -3.08914        0.87326        0.00001
H         -4.09418        1.28354        0.00001
C         -2.90373       -0.52653       -0.00001
C         -1.67303       -1.11227       -0.00001
H         -1.56043       -2.19265       -0.00002
C         -0.52300       -0.27893       -0.00000
C         -0.67926        1.13580        0.00001
C          0.47551        1.96396        0.00002
H          0.34604        3.04156        0.00003
C          1.73085        1.41893        0.00001
H          2.61892        2.03807        0.00002
C          1.85182        0.01220        0.00000
C          0.77741       -0.83621       -0.00000
H          0.91257       -1.91179       -0.00001
N          3.19518       -0.56904       -0.00000
O          4.14857        0.19298       -0.00008
O          3.30293       -1.78486        0.00007
N         -4.10418       -1.36942       -0.00002
H         -3.86655       -2.37013       -0.00003
H         -4.68849       -1.18827       -0.82822
H         -4.68848       -1.18830        0.82820
