29
id_1008_ca.log	Energy: -809767.0447566
C         -3.84745       -2.83176        0.02601
H         -4.27389       -3.69473       -0.49329
H         -4.49895       -1.97106       -0.15801
H         -3.86461       -3.04182        1.10067
C         -2.42635       -2.54943       -0.44870
H         -2.42498       -2.35867       -1.52870
H         -1.79457       -3.42973       -0.28159
C         -1.81703       -1.34804        0.27437
H         -1.77564       -1.54723        1.35320
H         -2.46106       -0.47438        0.12316
C         -0.41497       -1.08066       -0.24547
H         -0.41457       -0.72020       -1.27729
H          0.17914       -1.99507       -0.19789
N          0.33138       -0.05719        0.57557
C         -0.42523        1.22776        0.78263
H         -1.32025        0.98210        1.35499
H          0.21444        1.86945        1.39016
C         -0.78752        1.90673       -0.52734
H         -1.47364        1.31344       -1.13146
H          0.08698        2.17968       -1.11711
Cl        -1.64104        3.43537       -0.12400
C          1.71541        0.19193        0.04339
H          1.62210        0.46460       -1.00939
H          2.12476        1.03182        0.60773
C          2.59681       -1.03528        0.21494
H          2.31982       -1.85405       -0.44642
H          2.60824       -1.37684        1.25125
Cl         4.27811       -0.57696       -0.21758
H          0.43470       -0.45747        1.51893
