11
id_1443_ca.log	Energy: -212978.4602310
C          0.20901        1.20097        0.00000
H          0.70391        2.16716        0.00001
C         -1.18144        1.09358       -0.00000
H         -1.80031        1.98496        0.00000
N         -1.84563       -0.06043       -0.00000
N         -1.15373       -1.19965        0.00000
C          0.16931       -1.17802       -0.00000
H          0.67421       -2.13908        0.00001
C          0.91442        0.01341       -0.00000
O          2.25926       -0.09470       -0.00000
H          2.67588        0.78544        0.00001
