30
id_1716_cb.log	Energy: -303798.4095029
C          5.29097       -0.06524        0.11034
H          5.35778       -0.26313        1.18580
H          6.11772        0.59847       -0.16063
H          5.43879       -1.01663       -0.41233
C          3.93963        0.54600       -0.24631
H          3.82228        1.50956        0.26580
H          3.90212        0.75938       -1.32228
C          2.77160       -0.36453        0.12476
H          2.80327       -0.57150        1.20370
H          2.89226       -1.33277       -0.38039
C          1.41262        0.23139       -0.23834
H          1.36177        0.39981       -1.32166
H          1.31623        1.21183        0.24358
C          0.27122       -0.68539        0.18434
H          0.26928       -0.77776        1.28761
H          0.45805       -1.69007       -0.21457
N         -1.04872       -0.26859       -0.29278
C         -2.03365       -1.27852        0.10030
H         -1.77892       -2.23317       -0.37128
H         -2.02540       -1.42943        1.19579
C         -3.42987       -0.86181       -0.32234
H         -4.16625       -1.59655        0.01165
H         -3.48259       -0.77794       -1.41789
O         -3.78801        0.38063        0.26808
C         -2.85235        1.38244       -0.10629
H         -2.89059        1.53263       -1.19540
H         -3.16176        2.30636        0.38799
C         -1.44209        1.00611        0.31235
H         -1.39698        0.94550        1.41613
H         -0.76048        1.79780       -0.00967
