15
id_1149_ca.log	Energy: -242928.2094202
C         -0.60774       -1.21598       -0.00605
H         -1.16308       -2.14866       -0.01107
C          0.78261       -1.21795       -0.00068
H          1.34806       -2.14261       -0.00206
C          1.44607        0.00000        0.00261
C          0.78261        1.21795       -0.00068
H          1.34806        2.14261       -0.00206
C         -0.60774        1.21598       -0.00605
H         -1.16308        2.14866       -0.01107
C         -1.27543       -0.00000       -0.00915
N         -2.74448        0.00000        0.00831
H         -3.12815        0.82941       -0.46375
H         -3.12815       -0.82942       -0.46373
F          2.78742        0.00000        0.00504
H         -3.11140        0.00001        0.97019
