21
id_1053_cb.log	Energy: -229846.0078500
C          1.84508       -0.83062       -0.27927
H          1.89782       -0.78811       -1.37559
H          2.69369       -1.43491        0.05835
C          1.94605        0.59037        0.28228
H          2.87329        1.06811       -0.05039
H          1.98628        0.54240        1.37880
C          0.74148        1.43488       -0.13989
H          0.79515        2.44034        0.29196
H          0.72714        1.54659       -1.23254
C         -0.55628        0.76666        0.28648
C         -0.67173       -0.64255       -0.28994
C          0.52662       -1.49126        0.13259
H          0.43665       -2.49222       -0.30527
H          0.49907       -1.61263        1.22548
N         -1.98408       -1.17754        0.09503
H         -2.14422       -2.04740       -0.41107
H         -1.93562       -1.44087        1.08100
O         -1.65921        1.55317       -0.14491
H         -2.41282        0.93334       -0.12458
H         -0.56971        0.67999        1.38833
H         -0.67178       -0.54213       -1.38388
