14
id_1374_ca.log	Energy: -274024.7610827
C          2.28672        0.28092        0.00000
H          3.33656        0.55524       -0.00000
C          1.30473        1.25135       -0.00000
H          1.53895        2.31152       -0.00001
C         -0.03401        0.84105        0.00000
C         -0.30976       -0.53666       -0.00000
N          0.65785       -1.47570        0.00000
C          1.92000       -1.07550        0.00000
H          2.68119       -1.84962        0.00001
C         -1.68626       -1.04152       -0.00001
H         -1.79511       -2.13687       -0.00003
O         -2.67369       -0.31187        0.00001
O         -0.99854        1.78516       -0.00000
H         -1.87719        1.34536        0.00000
