27
id_1673_cb.log	Energy: -326190.8469105
C          3.12899        0.31479       -0.77409
H          3.57048        1.14392       -0.21278
H          2.32890        0.71961       -1.41493
H          3.89873       -0.10731       -1.42724
N          2.66364       -0.71546        0.14591
C          2.05162       -1.80151       -0.60952
H          1.67518       -2.56671        0.07626
H          2.80629       -2.25974       -1.25590
H          1.21702       -1.47128       -1.24931
C          1.74584       -0.16811        1.15680
H          1.49819       -0.98274        1.84576
H          2.29887        0.59049        1.72080
C          0.46251        0.44614        0.63104
C          0.40572        1.79895        0.29613
H          1.28009        2.42686        0.44666
C         -0.77118        2.34389       -0.22089
H         -0.81528        3.39803       -0.47763
C         -1.89323        1.54895       -0.40691
H         -2.81733        1.95545       -0.80557
C         -1.84240        0.19194       -0.06908
C         -0.67059       -0.35779        0.45082
H         -0.62063       -1.40615        0.72733
O         -2.99243       -0.51747       -0.27874
C         -2.96604       -1.90309        0.03211
H         -2.20940       -2.42581       -0.56285
H         -3.95535       -2.28629       -0.21765
H         -2.76929       -2.06526        1.09718
