29
id_1602_cb.log	Energy: -303674.3812994
C          3.63538       -0.89022       -0.39626
H          4.09921       -1.64778       -1.03538
H          4.35801       -0.61835        0.38200
H          3.45976       -0.00131       -1.01153
C          2.33988       -1.40941        0.22243
H          2.53336       -2.36593        0.72182
H          1.61384       -1.62151       -0.57258
C          1.72522       -0.44502        1.24130
H          2.40096       -0.36167        2.10201
H          0.78834       -0.87196        1.62092
C          1.45821        0.96212        0.70291
H          2.40316        1.45664        0.44929
H          0.99301        1.56730        1.49352
C          0.55639        1.01356       -0.53345
C         -0.77562        0.32486       -0.28436
C         -1.14931       -0.80485       -1.01481
H         -0.47512       -1.19217       -1.77571
C         -2.37348       -1.43440       -0.78505
H         -2.64743       -2.31078       -1.36504
C         -3.24164       -0.93777        0.18333
H         -4.19496       -1.42470        0.36471
C         -2.87976        0.19207        0.91907
H         -3.55234        0.58584        1.67543
C         -1.65820        0.81637        0.68577
H         -1.38682        1.69861        1.26252
N          0.42750        2.41728       -0.95476
H         -0.02466        2.92710       -0.19401
H         -0.23687        2.45590       -1.72780
H          1.05371        0.47994       -1.35226
