30
id_1634_ca.log	Energy: -420860.4474451
C         -4.66438       -0.39192        0.04499
H         -4.59309       -1.41606       -0.31954
H         -5.67990       -0.01591       -0.06586
H         -4.35425       -0.32779        1.08618
N         -3.76122        0.46371       -0.77438
H         -4.15316        0.56519       -1.71652
C         -2.35813       -0.04202       -0.89279
H         -2.39376       -1.02256       -1.36913
H         -1.82374        0.66414       -1.53182
C         -1.70355       -0.11643        0.47928
C         -0.23472       -0.44914        0.32026
C          0.18172       -1.77487        0.28923
H         -0.54352       -2.57311        0.42201
C          1.52840       -2.08686        0.09284
H          1.87218       -3.11592        0.06940
C          2.45560       -1.06938       -0.06383
C          2.03877        0.27428       -0.02755
C          0.69855        0.58267        0.15623
H          0.36523        1.61414        0.18798
O          3.04991        1.17895       -0.18317
C          2.69806        2.55582       -0.14008
H          3.62742        3.10833       -0.27363
H          2.25020        2.81196        0.82552
H          2.00138        2.80386       -0.94715
O          3.77719       -1.37093       -0.24538
H          4.26978       -0.53399       -0.31662
O         -1.93501        1.15141        1.06961
H         -1.58901        1.12999        1.97659
H         -2.18110       -0.90818        1.07040
H         -3.72480        1.40159       -0.35720
