15
id_1018_ca.log	Energy: -710377.5379947
C         -1.50042       -0.21427       -1.09435
H         -1.75869       -0.65800       -2.06105
H         -1.41932        0.86673       -1.23901
C         -2.65157       -0.52194       -0.14584
H         -2.73982       -1.58943        0.05733
H         -3.59405       -0.14797       -0.54290
N         -2.44117        0.15227        1.17451
H         -1.58416       -0.17950        1.63518
H         -3.22553       -0.03305        1.81031
C         -0.20911       -0.81114       -0.61951
H         -0.13850       -1.89636       -0.60887
C          0.84879       -0.13339       -0.18677
Cl         0.93529        1.59914       -0.11545
Cl         2.29917       -0.92351        0.34753
H         -2.36367        1.17045        1.06102
