28
id_1700_cb.log	Energy: -303061.3962989
C          1.59195       -0.30414        1.46812
H          2.65005       -0.05080        1.59499
H          1.39794       -1.23565        2.01127
H          1.00962        0.49552        1.93207
C          1.27674       -0.48456       -0.02725
C          1.26328        0.89462       -0.72101
H          1.27589        0.74309       -1.80741
H          2.13746        1.48115       -0.42634
C         -0.00000        1.63526       -0.36850
O         -0.00000        2.71841        0.19681
C         -1.26328        0.89462       -0.72101
H         -2.13746        1.48115       -0.42634
H         -1.27589        0.74309       -1.80741
C         -1.27674       -0.48456       -0.02725
N          0.00000       -1.15982       -0.32680
H          0.00000       -2.05515        0.16476
C         -1.59195       -0.30414        1.46812
H         -1.00962        0.49551        1.93207
H         -1.39794       -1.23565        2.01127
H         -2.65005       -0.05080        1.59499
C         -2.37971       -1.34511       -0.64388
H         -2.19026       -1.50989       -1.70839
H         -3.35471       -0.86119       -0.52913
H         -2.42276       -2.31960       -0.14321
C          2.37971       -1.34511       -0.64388
H          2.19026       -1.50989       -1.70839
H          2.42276       -2.31960       -0.14322
H          3.35471       -0.86119       -0.52913
