19
id_1909_ca.log	Energy: -335830.4908342
C          2.93370       -1.10779       -0.00000
H          3.89128       -0.58159       -0.00001
H          2.89479       -1.75731       -0.88131
H          2.89479       -1.75730        0.88131
C          1.79674       -0.12497       -0.00000
C          2.00012        1.24958        0.00000
H          3.02169        1.62225        0.00000
C          0.93189        2.15716        0.00000
H          1.12349        3.22513        0.00000
C         -0.36634        1.68043        0.00000
H         -1.20553        2.36769        0.00000
C         -0.61308        0.29602        0.00000
C          0.47259       -0.60111       -0.00000
O          0.31520       -1.94879       -0.00000
H         -0.64576       -2.15318        0.00000
C         -1.98940       -0.22424       -0.00000
O         -2.27550       -1.41988        0.00000
O         -2.93478        0.71828       -0.00000
H         -3.81138        0.28702       -0.00000
