33
id_1614_cb.log	Energy: -500017.1938440
C         -3.12260       -2.16480       -0.13251
H         -2.37035       -2.71022        0.44957
H         -2.89326       -2.28965       -1.19579
H         -4.09950       -2.61563        0.06682
C         -3.12999       -0.68471        0.24758
C         -4.17818        0.04451       -0.59369
H         -3.93113       -0.03017       -1.65806
H         -4.25381        1.10392       -0.32923
H         -5.16316       -0.40582       -0.43342
C         -3.45734       -0.54256        1.73825
H         -4.42424       -1.00431        1.96471
H         -3.50970        0.50997        2.03632
H         -2.69099       -1.03583        2.34773
N         -1.78593       -0.15825       -0.08079
H         -1.09757       -0.79586        0.32224
C         -1.48540        1.18823        0.40433
H         -2.35546        1.82950        0.23801
H         -1.23185        1.23317        1.47215
C         -0.32911        1.74717       -0.43841
C          0.97359        1.03213       -0.11798
C          1.64038        1.31092        1.07808
H          1.24174        2.06474        1.75166
C          2.81358        0.64217        1.41798
H          3.34706        0.85092        2.33919
C          3.31463       -0.31202        0.54980
C          2.65753       -0.59381       -0.63910
C          1.49215        0.06785       -0.98338
H          1.00761       -0.16548       -1.92546
F          3.18100       -1.52434       -1.45255
F          4.44464       -0.97873        0.83347
O         -0.68043        1.63455       -1.80521
H         -1.18866        0.79749       -1.84133
H         -0.20806        2.81189       -0.21189
