22
id_1304_cb.log	Energy: -405048.1576802
C         -1.39226       -2.25309       -0.18415
H         -1.52884       -3.32592       -0.28087
C         -0.11848       -1.73986       -0.13084
H          0.73416       -2.40080       -0.19150
C          0.06089       -0.33727       -0.01763
C         -1.08501        0.52092        0.01477
C         -0.91603        1.92845        0.02429
H         -1.78971        2.57114        0.01677
C          0.32992        2.50652        0.01320
H          0.43999        3.58471        0.01509
C          1.47325        1.69048        0.00260
H          2.46657        2.12366        0.01226
C          1.32623        0.32555        0.00370
N          2.57168       -0.43715        0.05017
O          3.55537        0.03462       -0.50185
O          2.59264       -1.49385        0.66370
C         -2.40009       -0.05922        0.00843
C         -2.52873       -1.43080       -0.09690
H         -3.52211       -1.86989       -0.11106
N         -3.52196        0.76135        0.02948
H         -3.45387        1.56455        0.64537
H         -4.37649        0.24689        0.21669
