39
id_1446_cb.log	Energy: -625544.2041792
C         -4.38687       -0.08118       -0.90568
H         -3.95918        0.70160       -1.53493
H         -5.04173        0.35239       -0.15133
H         -4.93367       -0.80068       -1.51956
O         -3.35055       -0.75426       -0.17390
C         -2.35879       -1.28039       -0.89675
O         -2.31868       -1.19130       -2.11350
C         -1.34854       -2.03428       -0.06881
H         -1.55488       -1.88438        0.99307
H         -1.52861       -3.09284       -0.29278
C          0.10339       -1.68530       -0.43031
H          0.15239       -1.43062       -1.49530
H          0.71563       -2.57577       -0.28423
C          0.70630       -0.51967        0.39361
C          2.03061       -0.04959       -0.22717
C          2.86703       -0.94431       -0.90631
H          2.57019       -1.97952       -1.04216
C          4.09802       -0.53079       -1.42065
H          4.72445       -1.24613       -1.94639
C          4.52110        0.78694       -1.26150
H          5.47714        1.11024       -1.66319
C          3.70156        1.68696       -0.57833
H          4.01754        2.71761       -0.44207
C          2.47369        1.27115       -0.06756
H          1.85119        1.98604        0.46360
C         -0.32680        0.61040        0.43758
C         -0.63010        1.29587       -0.74851
H         -0.07113        1.06980       -1.65458
C         -1.64067        2.25283       -0.78963
H         -1.85949        2.76501       -1.72275
C         -2.37507        2.54680        0.36185
H         -3.16659        3.29044        0.33182
C         -2.08673        1.87196        1.54528
H         -2.65353        2.08503        2.44745
C         -1.07290        0.91058        1.58085
H         -0.87691        0.38930        2.51351
C          1.06751       -0.99235        1.84565
O          0.84768       -2.19206        2.15447
O          1.58165       -0.13130        2.61020
