25
id_1263_cb.log	Energy: -348717.3825640
C         -3.45367        0.37264        0.40810
H         -3.59545       -0.33972        1.22734
H         -3.78139       -0.08007       -0.53343
H         -4.03474        1.27377        0.60250
O         -2.09770        0.79238        0.32790
C         -1.16599       -0.17403        0.09121
C         -1.44872       -1.52996       -0.07287
H         -2.46893       -1.89167       -0.02080
C         -0.40252       -2.42495       -0.30242
H         -0.62832       -3.47938       -0.42708
C          0.91316       -1.98189       -0.36756
H          1.72234       -2.68488       -0.54480
C          1.21077       -0.62377       -0.21273
C          0.16561        0.26676        0.02120
O          0.44208        1.60749        0.21381
C          0.21941        2.39027       -0.96234
H         -0.83167        2.34640       -1.26347
H          0.85111        2.03605       -1.78412
H          0.48613        3.41746       -0.70993
C          2.63154       -0.10674       -0.23942
H          2.70901        0.72310       -0.94849
H          3.28822       -0.90171       -0.60276
N          3.14054        0.36303        1.05607
H          3.01330       -0.39307        1.72870
H          2.51402        1.10359        1.37113
