77
id_15_ca.log	Energy: -1068522.7973200
C          6.02773        5.66958       -1.02033
H          5.42743        6.06299       -1.84423
H          7.08199        5.87137       -1.23385
H          5.76785        6.22661       -0.11384
C          5.78906        4.19550       -0.82941
C          4.80621        3.51986       -1.55387
H          4.21160        4.06174       -2.28397
C          4.58736        2.15504       -1.37687
H          3.84685        1.63632       -1.97809
C          5.34620        1.45561       -0.44071
C          6.33542        2.11046        0.29470
H          6.92324        1.55261        1.01584
C          6.55415        3.46584        0.08967
H          7.32815        3.97275        0.66005
N          5.14203        0.06216       -0.24289
C          3.96937       -0.60675       -0.04265
C          4.28489       -1.93942        0.12024
H          3.60266       -2.75218        0.30486
C          5.69777       -1.98391        0.01676
N          6.21029       -0.78074       -0.19213
C          6.56255       -3.21911        0.11843
C          6.16912       -4.19294       -1.00181
H          5.11478       -4.47894       -0.92418
H          6.33010       -3.74050       -1.98627
H          6.77503       -5.10368       -0.93821
C          8.04453       -2.86478       -0.01187
H          8.25805       -2.39648       -0.97761
H          8.64617       -3.77632        0.06829
H          8.35918       -2.17540        0.77786
C          6.31492       -3.88813        1.47821
H          5.26321       -4.17045        1.59470
H          6.58210       -3.21434        2.29944
H          6.92249       -4.79573        1.56596
N          2.77003        0.08831        0.02186
H          2.81888        1.09879        0.10772
C          1.53474       -0.52088       -0.01716
O          1.39750       -1.73440       -0.14689
N          0.49643        0.36190        0.09526
H          0.71400        1.33011        0.30233
C         -0.86443       -0.02519        0.12153
C         -1.37029       -0.89142       -0.81352
H         -0.71690       -1.28931       -1.58156
C         -2.73041       -1.27926       -0.79946
H         -3.08215       -1.97722       -1.54957
C         -3.57905       -0.75822        0.14507
C         -3.10064        0.16798        1.12456
C         -1.72268        0.52299        1.12817
C         -1.25731        1.41242        2.13236
H         -0.20488        1.67264        2.17241
C         -2.11887        1.93646        3.06487
H         -1.74309        2.61237        3.82641
C         -3.49058        1.59853        3.04261
H         -4.16313        2.02400        3.78045
C         -3.97019        0.72845        2.09480
H         -5.02045        0.45772        2.07893
O         -4.90344       -1.06364        0.24382
C         -5.48156       -1.83024       -0.80267
H         -5.29332       -1.35493       -1.77443
H         -5.04808       -2.83601       -0.81649
C         -6.96343       -1.95709       -0.53264
H         -7.15479       -2.11373        0.53161
H         -7.37095       -2.79461       -1.10140
N         -7.75123       -0.75090       -0.94770
C         -9.21756       -0.98283       -0.71181
H         -9.32956       -1.16942        0.35881
H         -9.50892       -1.86829       -1.27903
C        -10.00938        0.23736       -1.14136
H         -9.90483        0.39576       -2.22431
H        -11.06298        0.07781       -0.90673
O         -9.58315        1.39091       -0.43787
C         -8.22145        1.66034       -0.71994
H         -8.08867        1.83968       -1.79679
H         -7.94441        2.56388       -0.17446
C         -7.32435        0.52109       -0.26973
H         -6.28599        0.71942       -0.53504
H         -7.40968        0.34107        0.80493
H         -7.61197       -0.62209       -1.96077
