19
id_1478_cb.log	Energy: -286841.2869893
C          2.73879       -0.24639        0.01316
H          3.79588       -0.49359        0.02313
C          2.34030        1.10893       -0.02365
H          3.09203        1.89112       -0.04841
C          1.00486        1.43850       -0.03398
H          0.71744        2.48411       -0.07947
C          0.01725        0.42447       -0.00440
C          0.41483       -0.93575        0.01371
C          1.79789       -1.24752        0.02785
H          2.09631       -2.29194        0.04646
C         -0.59533       -1.93821        0.00451
H         -0.32360       -2.98844        0.01143
C         -1.90102       -1.54370       -0.02096
H         -2.69831       -2.28188       -0.03838
N         -2.31729       -0.24610       -0.01382
C         -1.39935        0.70196        0.00032
N         -1.84038        2.00430       -0.03992
H         -2.82381        2.10078        0.18621
H         -1.26168        2.69869        0.41583
