24
id_1158_ca.log	Energy: -254649.0157718
C          2.23248        0.33203        1.23858
H          3.30305        0.55407        1.19077
H          2.09381       -0.57434        1.83794
H          1.73294        1.15924        1.75374
C          1.67211        0.11605       -0.17410
H          1.83326        1.03571       -0.74923
C          2.44171       -0.99728       -0.88669
H          2.00694       -1.22479       -1.86459
H          2.45826       -1.91650       -0.29291
H          3.47910       -0.68363       -1.03519
C          0.17908       -0.15453       -0.09958
C         -0.32410       -1.44915        0.06391
H          0.36829       -2.28383        0.10347
C         -1.69018       -1.69472        0.17623
H         -2.04264       -2.71351        0.30097
C         -2.60086       -0.64341        0.12673
H         -3.66636       -0.82773        0.20954
C         -2.13342        0.65692       -0.03037
H         -2.82041        1.49720       -0.07167
C         -0.76698        0.87256       -0.13487
N         -0.31371        2.26636       -0.29413
H          0.33726        2.55047        0.45102
H         -1.11130        2.91425       -0.26155
H          0.16475        2.41807       -1.19247
