30
id_1122_cb.log	Energy: -535571.0895990
C         -3.91111        0.82042       -0.16973
H         -4.46231        1.62669       -0.66186
H         -3.63026        1.14721        0.83240
H         -4.58488       -0.03706       -0.08010
C         -2.69208        0.46396       -1.01022
H         -2.07904        1.33750       -1.22688
H         -3.02500        0.08330       -1.98291
N         -1.86339       -0.59752       -0.41902
C         -2.51430       -1.91690       -0.38617
H         -3.47603       -1.80163       -0.88790
H         -1.93995       -2.62995       -0.98497
C         -2.73111       -2.42284        1.03301
H         -3.37354       -1.73252        1.58754
H         -1.78605       -2.52240        1.57537
H         -3.21443       -3.40334        1.00547
C         -0.54362       -0.48828       -0.16647
C          0.28419       -1.65339       -0.08853
H         -0.16676       -2.63521       -0.10747
C          1.65301       -1.57800       -0.04652
H          2.24558       -2.48488       -0.02875
C          2.28698       -0.32886       -0.04974
C          1.54458        0.83623       -0.01208
H          2.02324        1.80377        0.07901
C          0.16353        0.74942       -0.01715
N         -0.50799        1.99382        0.32070
O         -0.05548        3.03955       -0.12188
O         -1.46081        1.93932        1.08295
N          3.72244       -0.24940       -0.03145
O          4.36218       -1.29441       -0.00444
O          4.25057        0.85676       -0.04775
