28
id_126_cb.log	Energy: -232713.6659439
C          2.54921        1.29337        0.30338
H          2.03461        1.73280        1.16397
H          2.16760        1.77707       -0.60525
H          3.61186        1.54206        0.39411
C          2.34952       -0.22025        0.22075
H          2.66364       -0.66932        1.17216
C          3.19951       -0.80720       -0.90454
H          4.26201       -0.59669       -0.74551
H          2.91301       -0.37168       -1.86959
H          3.07473       -1.89310       -0.97477
C          0.88125       -0.57457       -0.00518
H          0.77645       -1.66485       -0.07940
H          0.58019       -0.16281       -0.98489
N          0.02014       -0.12435        1.08845
H          0.03419        0.89558        1.09359
C         -1.37243       -0.54131        0.91212
H         -1.40933       -1.63543        0.99311
H         -1.94648       -0.14069        1.75815
C         -2.07439       -0.11535       -0.38538
H         -1.60050       -0.63378       -1.22942
C         -1.95404        1.39015       -0.61049
H         -2.36953        1.93930        0.24421
H         -2.50363        1.69764       -1.50629
H         -0.91113        1.70326       -0.73717
C         -3.53969       -0.54203       -0.32743
H         -4.05926       -0.30528       -1.26162
H         -4.05864       -0.02130        0.48676
H         -3.63437       -1.61919       -0.15073
