25
id_1835_cb.log	Energy: -575169.9323851
C          3.69038        1.12861       -0.51454
H          4.55048        1.76748       -0.68714
C          2.43177        1.50596       -0.97806
H          2.30690        2.44087       -1.51595
C          1.32296        0.68979       -0.76394
H          0.34691        0.98792       -1.13549
C          1.47346       -0.51059       -0.06809
C          2.73240       -0.89056        0.40575
H          2.84948       -1.81994        0.95667
C          3.83609       -0.07406        0.17478
H          4.81070       -0.37762        0.54448
S          0.11861       -1.64249        0.22359
C         -1.31564       -0.61979       -0.01362
C         -2.17101       -0.88959       -1.08550
H         -1.90582       -1.68421       -1.77652
C         -3.34089       -0.16196       -1.26846
H         -3.99833       -0.38337       -2.10211
C         -3.64798        0.85902       -0.36711
H         -4.55601        1.44104       -0.49339
C         -2.80512        1.14268        0.69771
H         -3.05013        1.93750        1.39704
C         -1.62434        0.40913        0.90274
N         -0.76606        0.74589        1.93505
H         -0.16473       -0.00786        2.25291
H         -1.21723        1.22488        2.70689
