34
id_1247_ca.log	Energy: -493182.8287613
N          1.08184       -2.51009       -0.87168
H          1.99002       -2.96985       -0.85919
C          0.92214       -1.30954       -0.38980
C          2.11523       -0.57496        0.05574
C          2.02331        0.27237        1.16837
H          1.07037        0.40077        1.67293
C          3.15724        0.92379        1.63365
H          3.08952        1.56924        2.50285
C          4.37929        0.74933        0.98272
H          5.26222        1.26703        1.34396
C          4.46995       -0.08021       -0.13359
H          5.41700       -0.20287       -0.64805
C          3.34240       -0.74819       -0.59704
H          3.41125       -1.37013       -1.48480
C         -0.42870       -0.78704       -0.24825
C         -1.45811       -1.64535        0.16545
H         -1.22484       -2.68362        0.38356
C         -2.75165       -1.19741        0.36534
H         -3.51353       -1.88172        0.71444
C         -3.03264        0.15446        0.12744
C         -2.03439        1.03459       -0.31084
H         -2.31024        2.06332       -0.50604
C         -0.73975        0.57595       -0.50296
O          0.25649        1.34612       -0.97966
C         -0.00976        2.72905       -1.20074
H          0.93462        3.15941       -1.53073
H         -0.76783        2.85685       -1.97891
H         -0.33668        3.21268       -0.27575
O         -4.25046        0.70771        0.29217
C         -5.31489       -0.13807        0.72364
H         -6.19401        0.50203        0.78185
H         -5.48851       -0.94108        0.00159
H         -5.09867       -0.56121        1.70895
H          0.30006       -3.03348       -1.25971
