25
id_1960_ca.log	Energy: -278059.2018829
C         -2.88455       -0.06556       -0.53748
H         -3.21889        0.78116       -1.14366
H         -3.69494       -0.34631        0.14095
H         -2.66737       -0.91181       -1.19665
C         -1.64807        0.30345        0.25879
C         -0.49419        0.65119       -0.66255
H         -0.70564        1.55021       -1.24234
H         -0.29005       -0.17618       -1.34230
N          0.75228        0.90077        0.15542
C          1.08600        2.35299        0.20371
H          1.89798        2.49963        0.91489
H          0.19697        2.89889        0.52036
H          1.38896        2.66287       -0.79690
C          1.92537        0.07853       -0.29947
H          1.97758        0.17206       -1.38640
H          2.81598        0.52692        0.14599
C          1.82468       -1.37080        0.15306
H          1.73743       -1.40233        1.24692
H          2.76993       -1.84901       -0.11791
O          0.78262       -2.10893       -0.45809
H         -0.03514       -1.92147        0.04221
O         -1.17361       -0.79363        1.04420
H         -1.84893       -1.02318        1.70318
H         -1.85632        1.15430        0.92078
H          0.53886        0.60065        1.11769
