15
id_1113_ca.log	Energy: -3407555.3013089
C          0.00607        1.41761        1.21822
H          0.01090        1.97173        2.15092
C          0.00962        2.07735       -0.00000
C          0.00607        1.41761       -1.21822
H          0.01090        1.97173       -2.15092
C         -0.00042        0.02820       -1.19338
C         -0.00358       -0.68472        0.00000
H         -0.00586       -1.76830        0.00000
C         -0.00042        0.02820        1.19338
Br        -0.00042       -0.92066        2.82561
Br        -0.00042       -0.92066       -2.82561
N         -0.00681        3.54348       -0.00000
H          0.46427        3.92785       -0.83073
H          0.46427        3.92785        0.83073
H         -0.97167        3.90557       -0.00000
