16
id_1714_ca.log	Energy: -319025.1645566
C          1.81510       -1.50583       -0.00001
H          2.36385       -2.43693       -0.00001
C          0.41930       -1.47782       -0.00001
H         -0.15344       -2.39811       -0.00001
C         -0.26414       -0.27924       -0.00000
C          0.43025        0.96548       -0.00000
N          1.78827        0.85709        0.00000
C          2.47540       -0.30540       -0.00000
H          3.55313       -0.20367       -0.00000
N         -0.09338        2.17666       -0.00000
H          0.50709        2.99607        0.00001
H         -1.09905        2.29322        0.00001
N         -1.71165       -0.32068        0.00000
O         -2.25614       -1.40937       -0.00000
O         -2.32351        0.74057        0.00001
H          2.32738        1.72515        0.00001
