16
id_1527_cb.log	Energy: -309062.8639845
C         -1.80729       -1.67506       -0.00000
H         -2.52855       -2.48978       -0.00000
C         -0.45577       -1.97066       -0.00000
H         -0.09026       -2.99302       -0.00000
C          0.46099       -0.89696       -0.00000
C          1.86290       -1.05536        0.00000
H          2.30743       -2.04705        0.00000
C          2.64784        0.06897        0.00000
H          3.73098        0.01044        0.00000
N          2.14542        1.33155        0.00000
N          0.85303        1.50611        0.00000
C         -0.00000        0.45692        0.00000
C         -1.43622        0.76558       -0.00000
C         -2.29076       -0.35717       -0.00000
H         -3.36264       -0.17539       -0.00000
O         -1.86703        1.97671       -0.00000
