15
id_1153_ca.log	Energy: -187410.9975901
C         -2.00395        1.88039        0.00163
H         -2.33993        2.91138        0.00172
C         -2.93925        0.85034       -0.00592
H         -4.00497        1.05632       -0.01195
C         -2.47469       -0.45521       -0.00914
C         -1.12502       -0.77483       -0.00623
H         -0.80379       -1.81117       -0.01250
C         -0.21200        0.27502        0.00107
C         -0.63893        1.60008        0.00562
H          0.08177        2.41002        0.00935
I          1.86193       -0.15926        0.00007
N         -3.45031       -1.55389        0.00688
H         -3.06554       -2.40636       -0.42224
H         -4.30546       -1.30385       -0.50755
H         -3.72898       -1.79294        0.96927
