43
id_1429_cb.log	Energy: -590778.8790105
C         -0.25003        3.78231       -0.43704
H         -0.29383        4.86296       -0.53041
C         -0.37749        2.97638       -1.56763
H         -0.52302        3.42741       -2.54449
C         -0.32145        1.59014       -1.44733
H         -0.42412        0.96449       -2.33157
C         -0.13688        0.99354       -0.19615
C         -0.01590        1.80687        0.93261
H          0.11983        1.34807        1.90958
C         -0.06905        3.19446        0.81340
H          0.02936        3.81546        1.69857
C         -0.05447       -0.52075       -0.08426
C          1.20301       -1.09065       -0.74846
H          1.19177       -2.18950       -0.62760
H          1.15706       -0.88771       -1.82319
N          2.44835       -0.52373       -0.24060
C          2.63734       -0.83418        1.17818
H          2.57286       -1.92413        1.35432
H          1.85950       -0.34742        1.77381
C          3.98723       -0.32802        1.65615
H          4.14927       -0.60817        2.69953
H          4.02215        0.76841        1.57307
O          5.05050       -0.89598        0.90498
C          4.88996       -0.58515       -0.47239
H          5.71964       -1.05669       -1.00408
H          4.94894        0.50397       -0.61421
C          3.56321       -1.10620       -0.99199
H          3.55803       -2.20872       -0.90951
H          3.45707       -0.84800       -2.05058
C         -1.29635       -1.12431       -0.73216
O         -1.21833       -1.70618       -1.80440
C         -2.62444       -0.94889       -0.06640
C         -2.75542       -0.44255        1.23178
H         -1.88164       -0.15936        1.80918
C         -4.01759       -0.30551        1.80262
H         -4.11246        0.08321        2.81130
C         -5.15438       -0.66634        1.08195
H         -6.13743       -0.55492        1.52890
C         -5.03029       -1.17079       -0.21296
H         -5.91481       -1.45119       -0.77585
C         -3.77130       -1.31347       -0.78235
H         -3.66183       -1.70414       -1.78867
H         -0.06645       -0.79215        0.97602
