32
id_1649_cb.log	Energy: -479141.1608963
C         -3.90203       -1.82897       -1.24555
H         -4.83780       -2.38766       -1.15178
H         -3.07950       -2.55308       -1.29180
H         -3.92196       -1.27136       -2.18626
C         -3.71301       -0.89385       -0.05847
H         -4.53672       -0.16876       -0.04247
C         -3.72468       -1.67692        1.25428
H         -3.65922       -1.01574        2.12362
H         -2.87569       -2.37115        1.28475
H         -4.64588       -2.26133        1.34566
N         -2.48020       -0.11591       -0.26211
H         -1.70162       -0.77799       -0.30251
C         -2.20561        0.84987        0.80002
H         -3.13005        1.40170        1.00308
H         -1.86525        0.40171        1.74324
C         -1.15633        1.84833        0.28951
C          0.20209        1.17928        0.16836
C          0.73760        0.84671       -1.07745
H          0.19652        1.10692       -1.98038
C          1.96234        0.19585       -1.17077
H          2.38709       -0.06780       -2.13170
C          2.63695       -0.11084        0.00379
C          2.13501        0.20901        1.26198
H          2.69284       -0.04154        2.15589
C          0.91097        0.85572        1.33208
H          0.49967        1.11905        2.30277
N          3.92450       -0.79274       -0.08439
O          4.36207       -1.06674       -1.19175
O          4.51066       -1.06215        0.95330
O         -1.59825        2.39002       -0.93974
H         -2.05430        1.64167       -1.37485
H         -1.07383        2.67168        1.00718
