27
id_1688_ca.log	Energy: -232260.3992756
C         -3.35042       -0.56863       -0.33239
H         -3.23461       -1.52998        0.17183
H         -4.37643       -0.22796       -0.17386
H         -3.20157       -0.70741       -1.40789
C         -2.41060        0.49015        0.21052
H         -2.65920        1.47312       -0.19412
H         -2.43076        0.54381        1.30163
N         -0.97941        0.24304       -0.17051
C         -0.11626        1.41195        0.21259
H         -0.18132        1.48778        1.30196
H         -0.56770        2.29822       -0.23625
C          1.31370        1.20101       -0.25440
H          1.90097        2.07130        0.05547
H          1.33490        1.16647       -1.35231
C          1.91306       -0.08856        0.30877
H          1.93789       -0.00221        1.40421
C          0.99723       -1.25806       -0.05443
H          1.35313       -2.18727        0.40189
H          1.00670       -1.40569       -1.14313
C         -0.43445       -1.03347        0.40513
H         -1.08562       -1.84464        0.08011
H         -0.50569       -0.92505        1.49152
C          3.32824       -0.31329       -0.20867
H          3.32652       -0.40209       -1.30130
H          3.98270        0.52147        0.06199
H          3.75683       -1.23185        0.20478
H         -0.94390        0.15424       -1.19570
