24
id_1590_cb.log	Energy: -301541.6802442
C          3.16388       -0.22627        1.24268
H          4.23187       -0.46218        1.21467
H          2.68617       -0.84547        2.00712
H          3.05119        0.82446        1.53615
C          2.52920       -0.46281       -0.12427
C          1.03369       -0.19731       -0.07984
C          0.11582       -1.23951       -0.17088
H          0.47753       -2.25829       -0.29008
C         -1.26292       -1.01679       -0.11550
H         -1.94488       -1.85560       -0.19287
C         -1.73456        0.28610        0.03335
C         -0.82740        1.34919        0.12752
H         -1.21511        2.35683        0.24228
C          0.53555        1.10499        0.07127
H          1.22485        1.94390        0.14287
O         -3.05846        0.62499        0.09438
C         -4.00086       -0.43179       -0.01264
H         -4.98437        0.03358        0.05147
H         -3.88236       -1.15069        0.80506
H         -3.90345       -0.95135       -0.97190
N          3.25775        0.32996       -1.12548
H          3.19083        1.31185       -0.85345
H          2.75312        0.26628       -2.00962
H          2.66363       -1.51779       -0.38858
