29
id_1902_ca.log	Energy: -548540.6365020
C         -1.46186       -1.33940        1.24667
H         -0.75860       -1.07372        2.04232
H         -1.14436       -2.28520        0.79536
H         -2.44110       -1.50393        1.71120
Si        -1.63335        0.00332       -0.02961
C         -1.89979        1.70646        0.67324
H         -1.69463        2.47826       -0.07659
H         -1.27732        1.89923        1.55115
H         -2.94796        1.80801        0.97634
C         -2.84902       -0.42457       -1.37272
H         -2.60495       -1.38651       -1.83580
H         -2.85956        0.34203       -2.15456
H         -3.86009       -0.49685       -0.95747
N          0.00219        0.09523       -0.94054
H          0.00723       -0.64793       -1.65313
Si         1.63808        0.00541       -0.03025
C          1.48694        1.16396        1.41781
H          0.78053        0.79950        2.17042
H          1.17616        2.16407        1.09742
H          2.46681        1.25763        1.89992
C          1.86539       -1.78616        0.42368
H          1.57067       -2.44338       -0.40180
H          1.29783       -2.06877        1.31416
H          2.92629       -1.96799        0.62925
C          2.86402        0.58583       -1.30522
H          3.87695        0.57505       -0.88845
H          2.64327        1.60794       -1.63044
H          2.85463       -0.06617       -2.18507
H         -0.00243        0.96843       -1.48762
