30
id_111_ca.log	Energy: -655026.3356082
C         -3.89327        1.22802        1.21808
H         -4.61659        1.90651        1.66010
C         -2.62541        1.09566        1.78433
H         -2.35993        1.66346        2.67079
C         -1.69688        0.21692        1.22927
H         -0.71565        0.08611        1.67655
C         -2.04355       -0.49847        0.08391
C         -3.30920       -0.38073       -0.49047
H         -3.55593       -0.95490       -1.37841
C         -4.23571        0.48314        0.08775
H         -5.22323        0.58170       -0.35238
N         -1.10247       -1.38477       -0.51158
C          0.17355       -1.17313       -0.87228
O          0.86789       -2.11385       -1.29098
C          0.68165        0.23469       -0.82218
C          0.05838        1.20282       -1.60986
H         -0.82102        0.93619       -2.19001
C          0.56412        2.50029       -1.65869
H          0.07484        3.24464       -2.27890
C          1.69014        2.83846       -0.91249
H          2.08464        3.84893       -0.94288
C          2.31380        1.87920       -0.11657
H          3.18441        2.14503        0.47404
C          1.81391        0.57984       -0.07311
C          2.51185       -0.43407        0.79374
F          1.65282       -1.29602        1.37246
F          3.39946       -1.17915        0.10450
F          3.20106        0.14737        1.79082
O         -1.59232       -2.67338       -0.69731
H         -0.83925       -3.15196       -1.11010
