18
id_1177_cb.log	Energy: -454898.5248251
C         -2.66493        1.31603        0.01456
H         -2.28219        1.79886        0.91597
H         -3.75565        1.36746        0.01987
H         -2.28994        1.82572       -0.87521
S         -2.25119       -0.44511       -0.01230
C         -0.47457       -0.44089       -0.00124
C          0.15282       -1.69445       -0.00119
H         -0.43919       -2.60488       -0.00516
C          1.54169       -1.75478        0.00149
H          2.03339       -2.72326       -0.00254
C          2.31417       -0.59743        0.00633
H          3.39895       -0.65419        0.00798
C          1.68953        0.65582        0.00884
C          0.28692        0.72565        0.00264
H         -0.18051        1.70533        0.00134
N          2.44393        1.82586        0.08001
H          1.97523        2.63704       -0.30948
H          3.37765        1.72914       -0.30466
