22
id_1140_ca.log	Energy: -277173.3627538
C         -3.89975       -0.36010        0.00216
H         -4.16061        0.21781        0.89279
H         -4.48583       -1.28254        0.00161
H         -4.16391        0.22094       -0.88545
C         -2.42592       -0.69436       -0.00119
H         -2.15075       -1.26956       -0.89287
H         -2.14726       -1.27279        0.88736
O         -1.71074        0.54548       -0.00021
C         -0.35550        0.49842       -0.00034
C          0.30349        1.73643        0.00355
H         -0.29580        2.64077        0.00585
C          1.68691        1.79159        0.00173
H          2.18677        2.75412        0.00260
C          2.44779        0.61937       -0.00343
H          3.53235        0.64626       -0.00565
C          1.76863       -0.58267       -0.00727
C          0.38226       -0.68599       -0.00600
H         -0.08929       -1.66183       -0.01151
N          2.54209       -1.83313        0.00554
H          2.16729       -2.51606       -0.66582
H          3.52773       -1.66810       -0.23539
H          2.52311       -2.27707        0.93410
