24
id_1726_cb.log	Energy: -299167.9090859
C         -1.98183       -1.01090        1.25023
H         -1.78478       -0.43634        2.16200
H         -1.35951       -1.90939        1.26702
H         -3.03338       -1.31706        1.25853
C         -1.69915       -0.16651       -0.00092
C         -1.97567       -1.00465       -1.25772
H         -1.77407       -0.42552       -2.16560
H         -3.02717       -1.31073       -1.27279
H         -1.35332       -1.90313       -1.27586
C         -2.62377        1.05194       -0.00015
H         -2.47218        1.67262        0.88936
H         -3.66505        0.71440       -0.00178
H         -2.47039        1.67530       -0.88745
C         -0.22872        0.23534        0.00330
C          0.20111        1.56319        0.00169
H         -0.48425        2.39954       -0.00142
C          1.57367        1.77454       -0.00401
H          1.97128        2.78688       -0.01264
N          2.47259        0.79255       -0.00159
C          1.95693       -0.45068        0.00652
N          0.65608       -0.77018        0.00562
N          2.84761       -1.48502        0.06735
H          2.49278       -2.38788       -0.22047
H          3.79071       -1.27376       -0.23223
