22
id_1307_cb.log	Energy: -405051.6460443
C         -3.43763       -0.22982       -0.05288
H         -4.52252       -0.23557       -0.05772
C         -2.71841       -1.42936       -0.18088
H         -3.25239       -2.36724       -0.29963
C         -1.33760       -1.44818       -0.16259
H         -0.83108       -2.39464       -0.27524
C         -0.59272       -0.25050       -0.01951
C         -1.32985        0.96144        0.06438
C         -2.74019        0.95139        0.05959
H         -3.26018        1.90245        0.13635
C         -0.63246        2.20987        0.12582
H         -1.21778        3.12150        0.20864
C          0.71600        2.27663        0.05801
H          1.23307        3.23055        0.08236
C          1.52179        1.08913       -0.04521
C          0.85564       -0.15816       -0.02297
N          1.64392       -1.33625        0.06452
O          1.15678       -2.37225        0.51769
O          2.83065       -1.30438       -0.29162
N          2.84597        1.27924       -0.11521
H          3.48690        0.50309       -0.18482
H          3.20793        2.21752       -0.00617
