20
id_1832_ca.log	Energy: -520377.5142502
C         -2.26758        1.35435        0.04564
H         -3.12497        2.01893        0.06514
C         -0.97481        1.86451        0.02222
H         -0.79823        2.93333        0.02477
C          0.09910        0.98945        0.01834
C         -0.06423       -0.39851        0.00947
C         -1.35946       -0.90017        0.01634
H         -1.53429       -1.97036       -0.00938
C         -2.43024       -0.01904        0.04590
N         -3.78639       -0.57247        0.03871
H         -3.82106       -1.49766        0.48912
H         -4.44738        0.04358        0.53218
C          1.07805       -1.39164       -0.06652
F          1.67886       -1.57264        1.11205
F          0.62631       -2.58932       -0.45938
F          2.00429       -1.01253       -0.95432
N          1.43344        1.60178        0.05646
O          2.30204        1.02880        0.68710
O          1.58055        2.66241       -0.52165
H         -4.13438       -0.68585       -0.92503
