28
id_1715_ca.log	Energy: -279435.4363487
C         -2.33255        0.93014        1.16483
H         -1.45836        1.55390        1.38574
H         -2.42854        0.17770        1.95657
H         -3.21167        1.57990        1.20610
C         -2.24058        0.25872       -0.20450
H         -2.05739        1.02082       -0.97051
C         -3.54719       -0.45671       -0.54870
H         -3.48356       -0.96149       -1.51789
H         -4.37139        0.26088       -0.59008
H         -3.78638       -1.20668        0.21367
C         -1.12452       -0.77908       -0.25942
H         -0.99300       -1.17285       -1.27103
H         -1.34191       -1.60854        0.42073
N          0.22055       -0.25663        0.15717
C          1.24325       -1.35571        0.13911
H          0.89993       -2.13909        0.81670
H          1.27293       -1.73292       -0.88559
C          2.59367       -0.80845        0.56061
H          3.33949       -1.60146        0.48562
H          2.55189       -0.45528        1.60102
O          3.00132        0.24558       -0.29449
C          2.07821        1.31800       -0.22488
H          2.02670        1.70408        0.80356
H          2.44252        2.10923       -0.88194
C          0.69612        0.88986       -0.68469
H          0.70838        0.53119       -1.71689
H         -0.01183        1.71299       -0.58261
H          0.14930        0.07868        1.12848
