34
id_1755_ca.log	Energy: -456274.2779322
C          1.22981        3.43188       -0.06679
H          0.87218        3.85177        0.87891
H          0.85823        4.04395       -0.89333
H          2.32180        3.46948       -0.07127
C          0.78215        1.99120       -0.21310
C          1.26312        1.10424        0.92819
H          0.93824        1.52917        1.88557
H          2.35624        1.09671        0.92559
C          0.71290       -0.31235        0.83403
C         -0.80822       -0.32607        0.71279
C         -1.39638       -1.73125        0.55095
H         -1.01482       -2.17738       -0.37561
H         -1.05291       -2.35762        1.38105
C         -2.92420       -1.67930        0.49986
H         -3.32522       -2.68782        0.35892
H         -3.30661       -1.30865        1.45979
C         -3.40299       -0.75926       -0.62469
H         -4.49515       -0.69739       -0.63291
H         -3.09432       -1.17568       -1.59216
C         -2.81529        0.64594       -0.47464
H         -3.17310        1.10119        0.45874
H         -3.12486        1.29069       -1.30402
C         -1.29538        0.56942       -0.42756
N         -0.72441        1.94812       -0.25115
H         -1.05832        2.54938       -1.01592
O          1.19214       -0.95177       -0.38884
N          2.47321       -1.41136       -0.35401
O          2.82996       -1.90366       -1.39440
O          3.10712       -1.29678        0.66621
H          1.10096        1.58103       -1.17552
H          1.02767       -0.92514        1.68051
H         -1.17961        0.10392        1.65491
H         -0.90386        0.21009       -1.38550
H         -1.09509        2.35604        0.62043
