18
id_1480_ca.log	Energy: -299307.6914794
C         -2.72676       -0.28412        0.00000
H         -3.77932       -0.55001        0.00001
C         -2.35094        1.08298        0.00002
H         -3.12105        1.84858        0.00005
C         -1.02694        1.45220        0.00001
H         -0.77686        2.50919        0.00006
C         -0.01170        0.45829       -0.00002
C         -0.38805       -0.91183       -0.00002
C         -1.76365       -1.26246       -0.00001
H         -2.03367       -2.31540       -0.00001
C          0.62994       -1.90146       -0.00001
H          0.34338       -2.95104        0.00001
N          1.91463       -1.62315        0.00002
C          2.28258       -0.31425        0.00000
H          3.34746       -0.10177        0.00001
C          1.38748        0.72914       -0.00002
O          1.90290        1.99543        0.00005
H          1.20268        2.66804       -0.00046
