46
id_1430_ca.log	Energy: -602496.4898323
C          4.78492       -1.97143        0.14531
H          5.78633       -2.38598        0.20345
C          3.97014       -2.26062       -0.94334
H          4.33115       -2.90315       -1.74020
C          2.68056       -1.73049       -1.02347
H          2.06624       -1.97768       -1.88173
C          2.20475       -0.89914       -0.01153
C          3.02785       -0.61136        1.08374
H          2.66089        0.03920        1.87502
C          4.30815       -1.14434        1.16355
H          4.93519       -0.91246        2.01861
C          0.79900       -0.26652       -0.04154
C         -0.00272       -0.66634       -1.31127
H         -0.12439       -1.75290       -1.34516
H          0.60511       -0.38667       -2.17761
C         -1.33256        0.04498       -1.51845
H         -1.76086       -0.25891       -2.47624
H         -1.20397        1.12973       -1.51947
N         -2.38886       -0.24496       -0.48974
C         -2.78016       -1.69249       -0.41944
H         -3.13612       -1.96315       -1.41645
H         -1.90219       -2.28584       -0.16242
C         -3.86409       -1.86527        0.62951
H         -3.46689       -1.60508        1.62212
H         -4.18604       -2.90759        0.63942
O         -4.99812       -1.07003        0.33283
C         -4.65020        0.30344        0.32402
H         -5.55533        0.87163        0.10418
H         -4.27177        0.60291        1.31229
C         -3.60952        0.59570       -0.74116
H         -3.29961        1.64179       -0.71814
H         -3.97062        0.33047       -1.73734
C          0.08790       -0.80821        1.13541
N         -0.49349       -1.24937        2.03550
C          0.90098        1.26279        0.05574
C          1.68318        1.92565       -0.89637
H          2.22803        1.35142       -1.64200
C          1.77265        3.31266       -0.88794
H          2.38329        3.81555       -1.63115
C          1.08518        4.05469        0.07380
H          1.15871        5.13750        0.08158
C          0.30917        3.39914        1.02316
H         -0.22692        3.96561        1.77801
C          0.21489        2.00627        1.01476
H         -0.39517        1.50949        1.76474
H         -2.03409        0.03004        0.43859
