24
id_1192_ca.log	Energy: -254642.4952218
C         -2.67788       -1.71903       -0.00000
H         -3.32627       -1.69403        0.88153
H         -2.13308       -2.66580       -0.00001
H         -3.32627       -1.69403       -0.88153
C         -1.73462       -0.54628       -0.00000
C         -2.23163        0.76362        0.00000
H         -3.30691        0.92081       -0.00000
C         -1.37437        1.85681        0.00000
H         -1.77490        2.86505        0.00000
C          0.00732        1.66634        0.00000
H          0.69181        2.50955        0.00000
C          0.48875        0.36801        0.00000
C         -0.35362       -0.73861        0.00000
H          0.05097       -1.74718        0.00000
N          1.94982        0.16171        0.00000
C          2.42680       -0.53727        1.23569
H          2.06593        0.01562        2.10179
H          3.51614       -0.55235        1.21129
H          2.03208       -1.55256        1.23062
C          2.42680       -0.53726       -1.23569
H          2.06594        0.01564       -2.10179
H          2.03208       -1.55255       -1.23063
H          3.51614       -0.55234       -1.21129
H          2.38237        1.09418        0.00001
