15
id_1154_ca.log	Energy: -187411.3954744
C          2.21102        1.21415       -0.00615
H          2.76396        2.14834       -0.01057
C          0.81891        1.21348       -0.00234
H          0.28080        2.15409       -0.00399
C          0.13626       -0.00000       -0.00009
C          0.81891       -1.21348       -0.00234
H          0.28080       -2.15409       -0.00399
C          2.21102       -1.21415       -0.00615
H          2.76396       -2.14834       -0.01057
C          2.87890       -0.00000       -0.00840
N          4.34733        0.00000        0.00974
H          4.73149       -0.83028       -0.46118
H          4.73149        0.83026       -0.46121
I         -1.98388        0.00000        0.00119
H          4.71155        0.00002        0.97315
