17
id_1963_cb.log	Energy: -587401.9773565
C         -1.86461        2.04314        0.00000
H         -2.28240        3.04466        0.00000
C         -0.50942        1.83510        0.00000
H          0.17725        2.67618       -0.00000
C          0.00000        0.50954        0.00000
C          1.38268        0.19332       -0.00000
C          1.80157       -1.11613       -0.00000
H          2.86531       -1.33990       -0.00000
C          0.87472       -2.17069       -0.00000
H          1.23734       -3.19523       -0.00000
C         -0.51674       -1.95916        0.00000
C         -0.94951       -0.55935        0.00000
N         -2.28915       -0.32383        0.00000
C         -2.72114        0.92048        0.00000
H         -3.79936        1.06357        0.00000
O         -1.37291       -2.92475        0.00000
Cl         2.57787        1.48459       -0.00000
