34
id_1609_cb.log	Energy: -422695.5370650
C          3.22595       -0.57503       -0.83917
H          3.98499       -0.68094       -1.60801
C          3.16308        0.58757       -0.07055
H          3.87653        1.38899       -0.23774
C          2.18367        0.72591        0.91034
H          2.13405        1.63788        1.50168
C          1.25145       -0.29260        1.14247
C          1.33041       -1.45744        0.37225
H          0.60836       -2.25327        0.53951
C          2.30794       -1.59865       -0.61442
H          2.34803       -2.50752       -1.20724
C          0.13516       -0.09014        2.13603
H          0.53087        0.27984        3.08866
H         -0.36351       -1.04533        2.33552
C         -0.88163        0.92770        1.60501
H         -0.36371        1.87631        1.43241
H         -1.65526        1.12356        2.36368
N         -1.48450        0.48073        0.34642
C         -1.72814        1.57940       -0.58735
H         -2.40197        1.22159       -1.37182
H         -2.21650        2.43926       -0.09815
C         -0.42977        2.02628       -1.24903
H          0.23869        2.50650       -0.52060
H         -0.65142        2.76030       -2.02854
O          0.23263        0.93709       -1.87638
H          0.41025        0.29517       -1.16619
C         -2.67212       -0.34259        0.57931
H         -2.48940       -0.94498        1.47539
H         -3.57047        0.26940        0.76499
C         -2.90801       -1.29359       -0.58619
H         -3.23053       -0.74750       -1.48320
H         -3.69779       -2.00518       -0.32999
O         -1.72697       -2.03543       -0.85617
H         -1.01295       -1.37335       -0.80727
