13
id_1704_cb.log	Energy: -478850.2089680
C         -0.56246        1.40643        0.00187
H         -1.34953        2.14985        0.00718
C          0.77682        1.76284        0.00402
H          1.04733        2.81545        0.01149
N          1.79859        0.89890        0.00056
C          1.50421       -0.40844       -0.00733
C          0.18062       -0.89314       -0.00695
H         -0.01855       -1.95905       -0.00975
C         -0.83412        0.03877       -0.00179
Cl        -2.49299       -0.50559        0.00284
N          2.55764       -1.28759       -0.07251
H          3.44253       -0.90501        0.23970
H          2.37506       -2.22414        0.26781
