24
id_178_ca.log	Energy: -254650.5314111
C          2.70357        1.30004       -0.36485
H          3.63153        1.05309        0.15000
H          1.98527        1.73705        0.32630
H          2.89406        1.98563       -1.18877
N          2.13504        0.04368       -0.92664
H          1.21829        0.24553       -1.34681
C          1.97962       -1.06944        0.06605
H          1.64859       -1.93957       -0.50344
H          2.97268       -1.26416        0.47399
C          0.98125       -0.71431        1.16189
H          0.88983       -1.60581        1.79110
H          1.37806        0.08547        1.79407
C         -0.36894       -0.32063        0.60622
C         -0.84670        0.98535        0.74217
H         -0.25033        1.71748        1.28153
C         -2.08058        1.35152        0.20443
H         -2.43943        2.36935        0.32298
C         -2.84862        0.41409       -0.48099
H         -3.80926        0.69707       -0.90006
C         -2.37877       -0.89174       -0.62596
H         -2.97416       -1.62851       -1.15658
C         -1.14779       -1.25475       -0.08760
H         -0.78723       -2.27505       -0.19775
H          2.73863       -0.28411       -1.68832
