23
id_1133_ca.log	Energy: -358261.7736765
C          3.30290        0.30809       -1.23148
H          2.81505       -0.10180       -2.11460
H          4.36561        0.06837       -1.22856
H          3.15557        1.38539       -1.16650
N          2.69351       -0.33174       -0.01876
C          3.31822        0.18557        1.24349
H          4.38296       -0.04122        1.19900
H          2.84876       -0.31631        2.08820
H          3.15887        1.26245        1.29042
C          1.22634       -0.21574       -0.00518
C          0.46772       -1.37881       -0.02633
H          0.94680       -2.35254       -0.04713
C         -0.91816       -1.27844       -0.02161
H         -1.54150       -2.16351       -0.03843
C         -1.48459       -0.01231        0.00366
C         -0.73302        1.15545        0.02897
H         -1.21683        2.12370        0.04908
C          0.65060        1.05000        0.02617
H          1.26168        1.94606        0.04785
N         -2.94712        0.09865        0.00163
O         -3.60021       -0.93081       -0.00961
O         -3.43761        1.21473        0.01027
H          2.92086       -1.33324       -0.07086
