29
id_127_ca.log	Energy: -390757.2696562
C         -2.87730       -1.40744        0.11089
H         -2.75140       -1.44937        1.19857
H         -2.28372       -2.19973       -0.34968
H         -3.92873       -1.59774       -0.11863
C         -2.51194       -0.03062       -0.41267
H         -2.49134       -0.02193       -1.50557
C         -3.43241        1.05612        0.11540
H         -3.43030        1.06195        1.21067
H         -4.45158        0.86085       -0.22611
H         -3.13105        2.04401       -0.24586
N         -1.10038        0.32065        0.00275
H         -0.92357        1.28858       -0.29585
C         -0.01232       -0.56499       -0.51937
H         -0.11699       -0.58595       -1.60832
H         -0.20095       -1.57170       -0.13909
Si         1.73286        0.01221        0.01517
C          2.93229       -1.26697       -0.64000
H          3.96087       -1.00502       -0.36969
H          2.87858       -1.33617       -1.73158
H          2.71678       -2.25711       -0.22466
C          2.03095        1.71024       -0.72437
H          3.01821        2.08859       -0.43732
H          1.28644        2.43619       -0.37726
H          1.98778        1.67743       -1.81828
C          1.73155        0.08749        1.89044
H          1.49631       -0.89051        2.32419
H          0.99557        0.80957        2.26331
H          2.71341        0.39499        2.26648
H         -1.06664        0.33449        1.03111
