19
id_1422_ca.log	Energy: -398075.8276949
C         -2.01276        1.69208        0.13844
H         -2.50179        2.66103        0.15633
C         -0.66155        1.58631        0.47174
H         -0.09465        2.47099        0.74856
C         -0.03263        0.34151        0.45417
C         -0.75031       -0.80531        0.10424
H         -0.28368       -1.78634        0.08180
C         -2.08867       -0.66212       -0.21576
C         -2.74571        0.55920       -0.21031
H         -3.79839        0.61141       -0.46876
F         -2.79100       -1.77104       -0.55363
C          1.44424        0.21712        0.79060
C          2.22988       -0.01183       -0.49165
O          2.81117       -1.03755       -0.77247
O          2.18398        1.05994       -1.28629
H          2.66837        0.87429       -2.11525
O          1.72653       -0.87580        1.63706
H          1.26609       -0.72764        2.47968
H          1.79460        1.16127        1.22511
