18
id_1801_cb.log	Energy: -461631.6399341
C         -3.30145       -2.14455        0.01591
H         -4.25462       -2.67710        0.01689
H         -2.74480       -2.41122        0.91688
H         -2.73732       -2.42815       -0.87517
S         -3.71603       -0.38398       -0.00254
C         -2.11669        0.39077       -0.00219
C         -2.07991        1.79165       -0.01239
H         -3.00557        2.36064       -0.01775
C         -0.87240        2.46513       -0.00802
H         -0.85936        3.55170       -0.01029
C          0.35836        1.78276       -0.00052
C          0.29865        0.38527        0.00422
C         -0.91177       -0.30798        0.00770
H         -0.89339       -1.39138        0.01592
I          2.09589       -0.75563       -0.00419
N          1.54962        2.49890       -0.06606
H          2.32971        2.05660        0.40988
H          1.44350        3.46044        0.24051
