32
id_1251_ca.log	Energy: -398825.8141772
N         -0.63641       -2.39533       -0.66172
H         -1.51688       -2.90621       -0.68438
C         -0.58661       -1.14837       -0.29798
C         -1.84339       -0.43954       -0.03115
C         -1.89463        0.52612        0.98458
H         -1.00484        0.75494        1.56184
C         -3.09704        1.16080        1.27089
H         -3.14052        1.89593        2.06730
C         -4.24134        0.85261        0.53671
H         -5.17643        1.35769        0.75708
C         -4.19010       -0.09705       -0.48394
H         -5.07817       -0.32459       -1.06361
C         -2.99761       -0.74962       -0.76597
H         -2.95415       -1.46831       -1.57910
C          0.71745       -0.49240       -0.16667
C          1.83676       -1.22570        0.25244
H          1.73505       -2.26750        0.54591
C          3.08045       -0.60864        0.35008
C          3.18323        0.74304        0.00417
H          4.15431        1.23005        0.07578
C          2.08339        1.49166       -0.42183
C          0.84082        0.86462       -0.49201
H         -0.02583        1.42530       -0.82940
C          2.24521        2.93781       -0.80680
H          1.27469        3.42524       -0.92524
H          2.78767        3.02633       -1.75396
H          2.81815        3.48091       -0.04966
C          4.29003       -1.36458        0.83047
H          4.06000       -2.42132        0.98412
H          4.65397       -0.95145        1.77669
H          5.10667       -1.28919        0.10599
H          0.20141       -2.90514       -0.93542
