23
id_1401_ca.log	Energy: -384365.2864337
C          2.41521        2.67306        0.07661
H          3.04625        2.55747       -0.81012
H          3.01087        2.52529        0.98280
H          1.97081        3.66773        0.08581
O          1.31953        1.76283        0.03936
C          1.59509        0.43121        0.00560
C          2.89490       -0.08259        0.03333
H          3.75203        0.57900        0.07674
C          3.09140       -1.46208        0.00619
H          4.10561       -1.85025        0.02685
C          2.00664       -2.33779       -0.05106
H          2.16584       -3.41081       -0.08083
C          0.71672       -1.82109       -0.08022
H         -0.12917       -2.49953       -0.14391
C          0.48173       -0.43923       -0.04844
C         -0.86822        0.12280       -0.08709
H         -0.94398        1.19132       -0.27499
C         -2.01127       -0.56163        0.09026
H         -2.04692       -1.62402        0.30882
C         -3.30166        0.13479       -0.00250
O         -3.46474        1.32412       -0.23278
O         -4.34009       -0.69807        0.19940
H         -5.17206       -0.19190        0.12482
