21
id_1295_ca.log	Energy: -565436.5056778
C         -1.69517        1.68494       -0.00000
H         -1.77549        2.76763       -0.00000
C         -2.82304        0.90792       -0.00000
H         -3.81497        1.34825        0.00000
C         -2.67589       -0.49569        0.00000
C         -1.46291       -1.11856       -0.00000
H         -1.38537       -2.20212       -0.00000
C         -0.28578       -0.32423       -0.00000
C         -0.40336        1.09316       -0.00000
C          0.77792        1.88060        0.00000
H          0.68745        2.96271        0.00000
C          2.01555        1.29208        0.00000
H          2.92018        1.89021        0.00000
C          2.10778       -0.11965       -0.00000
C          1.00008       -0.92353       -0.00000
H          1.08871       -2.00530       -0.00000
Cl         3.69902       -0.84345        0.00000
N         -3.89879       -1.30708        0.00000
H         -3.68660       -2.31322        0.00002
H         -4.47841       -1.11119       -0.82786
H         -4.47842       -1.11117        0.82785
