35
id_1668_ca.log	Energy: -631469.2100243
C         -3.57459       -2.92293       -0.42990
H         -3.34703       -3.56306       -1.28598
H         -4.65712       -2.90775       -0.27818
H         -3.12314       -3.38101        0.45799
C         -3.03119       -1.53417       -0.62641
C         -3.60444       -0.44381        0.04074
H         -4.47576       -0.60232        0.67037
C         -3.07351        0.83319       -0.09249
H         -3.52074        1.67004        0.43854
C         -1.94667        1.04786       -0.89163
C         -1.37749       -0.03261       -1.57133
H         -0.50192        0.12782       -2.19678
C         -1.91898       -1.30812       -1.44208
H         -1.46758       -2.14128       -1.97363
C         -1.31730        2.40532       -0.95929
H         -2.04157        3.21323       -0.85213
H         -0.72204        2.55105       -1.86155
N         -0.33967        2.60763        0.20942
H         -0.85946        2.55543        1.09934
C          0.75359        1.64467        0.20865
C          1.88124        1.94311       -0.54054
H          1.95390        2.90667       -1.03482
C          2.90475        1.00968       -0.66103
H          3.79610        1.23408       -1.23362
C          2.75315       -0.21982       -0.04052
C          1.63502       -0.55925        0.70191
H          1.53773       -1.52700        1.17858
C          0.64044        0.39427        0.82335
N         -0.52273        0.03449        1.64020
O         -0.83612       -1.13448        1.69307
O         -1.09991        0.93466        2.23495
N          3.82444       -1.21694       -0.17129
O          4.80575       -0.91002       -0.82201
O          3.66790       -2.29206        0.37744
H          0.04930        3.55869        0.13941
