15
id_1941_cb.log	Energy: -404017.0776599
C          1.55580        1.78524        0.00133
H          1.90837        2.81372        0.00580
C          0.17924        1.53232       -0.00910
H         -0.54092        2.34267       -0.01176
C         -0.22791        0.19853       -0.01738
C          0.67958       -0.85842       -0.01297
H          0.32435       -1.88699       -0.01770
C          2.08159       -0.62172       -0.00098
C          2.47910        0.74892        0.00494
H          3.54478        0.96803        0.01233
O          2.94915       -1.59284        0.00298
C         -1.68669       -0.14255       -0.00199
F         -2.02394       -1.02171       -0.97258
F         -2.48559        0.92845       -0.16583
F         -2.06758       -0.72325        1.16112
