11
id_1938_ca.log	Energy: -1033499.2438697
C          0.64496       -0.96024        0.00010
H          0.62433       -1.60960        0.88212
H          0.62433       -1.60980       -0.88179
C          1.95555       -0.20689        0.00003
O          2.09395        0.99583       -0.00004
O          2.97772       -1.06876        0.00006
H          3.81979       -0.57144        0.00003
C         -0.60344       -0.08961        0.00001
Cl        -0.68033        0.93702        1.45766
Cl        -2.02906       -1.17298        0.00005
Cl        -0.68027        0.93682       -1.45779
