18
id_1774_cb.log	Energy: -743282.4797878
C         -3.14954       -1.42013        0.03737
H         -4.23147       -1.56682        0.05048
H         -2.72118       -1.85575        0.94253
H         -2.73663       -1.90650       -0.84884
S         -2.88947        0.36954       -0.01358
C         -1.11705        0.49807       -0.00773
C         -0.56125        1.78497       -0.00490
H         -1.20996        2.65670       -0.00186
C          0.81095        1.96484        0.00127
H          1.22612        2.96888        0.00828
C          1.69738        0.87494        0.00064
C          1.11715       -0.39727       -0.00593
C         -0.26021       -0.59964       -0.00700
H         -0.63488       -1.61692       -0.00782
Cl         2.16649       -1.80133       -0.01305
N          3.07301        1.06763       -0.06314
H          3.61774        0.33850        0.38591
H          3.35571        1.98358        0.27018
