12
id_1521_cb.log	Energy: -1806028.4246538
C          1.20620       -1.81110        0.00000
H          2.15249       -2.34759        0.00000
C          1.20659       -0.42081        0.00000
H          2.14938        0.11961       -0.00000
C         -0.00000        0.27537       -0.00000
C         -1.20645       -0.42109        0.00000
H         -2.14933        0.11918       -0.00000
C         -1.20578       -1.81137        0.00000
H         -2.15195       -2.34807        0.00000
C          0.00031       -2.56827        0.00000
O          0.00044       -3.87445        0.00000
Br        -0.00026        2.17132       -0.00000
