17
id_1771_cb.log	Energy: -493439.7810644
C          2.03339        1.89369       -0.00885
H          1.51490        2.85389       -0.05241
H          2.70934        1.82596       -0.86923
H          2.65975        1.88791        0.89224
C          1.05285        0.75382       -0.00174
C         -0.32004        0.98631        0.00329
H         -0.68827        2.00811        0.00692
C         -1.21621       -0.07733        0.00091
C         -0.76660       -1.39053       -0.00446
H         -1.47028       -2.21631       -0.00360
C          0.60277       -1.63127       -0.00482
H          0.96967       -2.65400       -0.00458
C          1.52299       -0.57622       -0.00513
N          2.89145       -0.83142       -0.07710
H          3.47014       -0.13266        0.37711
H          3.14303       -1.76364        0.23475
Cl        -2.94137        0.25058        0.00490
