31
id_1670_cb.log	Energy: -460288.1122225
C          3.21098        1.19063       -0.55915
H          3.97158        1.95622       -0.67456
C          1.92328        1.40652       -1.05345
H          1.68133        2.33992       -1.55385
C          0.93685        0.43167       -0.90796
C          1.24539       -0.76633       -0.25477
H          0.49725       -1.54525       -0.12711
C          2.52902       -0.95282        0.22520
C          3.52818        0.00168        0.08959
H          4.51829       -0.19376        0.48673
F          2.82397       -2.11031        0.84895
C         -0.46435        0.63568       -1.43532
H         -0.66733       -0.12464       -2.19687
H         -0.54486        1.61730       -1.92863
N         -1.45897        0.48953       -0.36973
C         -1.51050        1.66846        0.50311
H         -0.52853        2.15402        0.49056
H         -2.25174        2.40235        0.15333
C         -1.79869        1.23175        1.92898
H         -2.76297        0.70565        1.98059
H         -1.85067        2.10012        2.59155
O         -0.75000        0.39693        2.40365
H         -0.51994       -0.17861        1.65264
C         -2.77904        0.12474       -0.89310
H         -3.52896        0.38718       -0.14026
H         -3.02198        0.67609       -1.81503
C         -2.84603       -1.37746       -1.12555
H         -2.16325       -1.67783       -1.93291
H         -3.85850       -1.66706       -1.41997
O         -2.53036       -2.06929        0.07459
H         -1.78026       -1.57400        0.44982
