24
id_1674_cb.log	Energy: -301536.3774058
C         -3.09541       -1.01664        1.10776
H         -3.31697       -1.90782        0.51171
H         -3.75632       -1.02009        1.97788
H         -2.05929       -1.10304        1.46475
N         -3.35655        0.17462        0.30239
H         -3.12564        0.98699        0.87539
C         -2.48728        0.22570       -0.88158
H         -2.72385       -0.64261       -1.50627
H         -2.75746        1.12115       -1.45043
C         -1.00325        0.24326       -0.58839
C         -0.20567       -0.88297       -0.77311
H         -0.65133       -1.79038       -1.17468
C          1.15569       -0.88098       -0.45756
H          1.74447       -1.77679       -0.61671
C          1.73102        0.27847        0.06084
C          0.94496        1.42076        0.25837
H          1.41386        2.31386        0.65986
C         -0.40302        1.39586       -0.06281
H         -1.00530        2.28883        0.09234
O          3.04960        0.39703        0.40287
C          3.87089       -0.74686        0.21846
H          4.86931       -0.45666        0.54545
H          3.90278       -1.04368       -0.83520
H          3.51710       -1.58785        0.82436
