19
id_1856_cb.log	Energy: -359446.1697997
C         -2.16064       -0.90349        1.18246
H         -1.98365       -1.73501        1.87761
H         -3.22030       -0.88996        0.91829
H         -1.87765        0.02244        1.68547
C         -1.32328       -1.17349       -0.03598
O         -1.72541       -1.89762       -0.93927
C          0.10269       -0.69895       -0.03666
C          1.10038       -1.67658       -0.00714
H          0.82043       -2.72683       -0.01448
C          2.44367       -1.30659        0.04938
H          3.21418       -2.07147        0.07552
C          2.79150        0.04345        0.07193
H          3.83632        0.33694        0.11118
C          1.79602        1.01906        0.03318
H          2.06088        2.07211        0.03063
C          0.44849        0.66045       -0.02652
C         -0.62342        1.72704       -0.16163
O         -1.72486        1.35510       -0.65277
O         -0.33756        2.89832        0.20473
