20
id_1289_cb.log	Energy: -276769.9671119
C          2.74772       -0.25438        0.01407
H          3.80372       -0.50612        0.02530
C          2.35069        1.10338       -0.02471
H          3.10397        1.88451       -0.05175
C          1.01781        1.43537       -0.03526
H          0.73281        2.48164       -0.08396
C          0.01480        0.42970       -0.00486
C          0.41323       -0.93855        0.01218
C          1.80074       -1.24709        0.02809
H          2.09564       -2.29307        0.04777
C         -0.56934       -1.96483        0.00403
H         -0.24766       -3.00208        0.01231
C         -1.89947       -1.63077       -0.01869
H         -2.65766       -2.40837       -0.02723
C         -2.30965       -0.27955       -0.01376
H         -3.36863       -0.03548       -0.01138
C         -1.38568        0.74721       -0.00103
N         -1.79244        2.08175       -0.05254
H         -1.22742        2.70862        0.51113
H         -2.77284        2.19511        0.18523
