20
id_1822_ca.log	Energy: -333614.2091203
C          2.00111        2.56625       -0.00941
H          2.39702        2.76281       -1.01119
H          2.84798        2.53536        0.68103
H          1.34776        3.39572        0.26797
C          1.25240        1.26305        0.00668
C          1.94665        0.04965       -0.00061
H          3.03359        0.04360       -0.00070
C          1.24951       -1.14825       -0.01000
C         -0.13240       -1.21082       -0.01080
H         -0.66794       -2.15311       -0.01802
C         -0.79487        0.00748       -0.00052
C         -0.14197        1.23235        0.00984
H         -0.71492        2.15240        0.01850
N         -2.26094       -0.00779        0.00007
O         -2.84594        1.06142        0.01772
O         -2.82289       -1.08999       -0.01701
N          2.00690       -2.40429        0.01176
H          1.50433       -3.15886       -0.47551
H          2.92559       -2.30132       -0.43931
H          2.17300       -2.72174        0.97764
