28
id_1728_ca.log	Energy: -324115.6867700
C          4.11156       -0.00330       -0.40203
H          4.39011        0.89161        0.16471
H          4.69968       -0.01545       -1.32422
H          4.39668       -0.87810        0.19222
C          2.61639       -0.01339       -0.69797
H          2.35408       -0.90088       -1.28635
H          2.34682        0.85710       -1.30787
C          1.78729       -0.00407        0.59345
H          2.05667        0.87334        1.19055
H          2.04798       -0.88132        1.19563
C          0.30392        0.00219        0.33257
C         -0.43162        1.20609        0.18227
N         -1.73925        1.23908       -0.06188
C         -2.38905        0.07778       -0.17572
N         -1.73450       -1.10318       -0.06119
C         -0.39841       -1.17362        0.18916
C          0.18868       -2.53994        0.31346
H          0.41314       -2.74628        1.36529
H          1.12210       -2.60639       -0.24957
H         -0.50375       -3.29996       -0.05317
N         -3.69971        0.07016       -0.39751
H         -4.21368       -0.79102       -0.53679
H         -4.17247        0.95522       -0.52726
C          0.25182        2.52988        0.31582
H          0.59147        2.66803        1.34839
H         -0.43475        3.33533        0.05656
H          1.13550        2.57895       -0.32720
H         -2.25880       -1.97239       -0.16295
