30
id_1085_ca.log	Energy: -397593.3663795
C          4.79537       -1.99212       -0.28136
H          4.61614       -2.50233        0.67125
H          5.78020       -1.51604       -0.22412
H          4.83376       -2.75191       -1.06752
C          3.70786       -0.95909       -0.55675
H          3.89237       -0.47068       -1.52194
H          2.73535       -1.45854       -0.63809
C          3.64317        0.10649        0.53538
H          4.61403        0.60936        0.62056
H          3.43867       -0.36036        1.50679
C          2.60501        1.17444        0.26885
H          2.59891        1.94606        1.04335
H          2.75673        1.65286       -0.70365
O          1.31126        0.53070        0.26036
C          0.26668        1.31219        0.00294
O          0.35788        2.50564       -0.21333
C         -1.02931        0.57219        0.00833
C         -2.19435        1.29851       -0.24363
H         -2.13130        2.36394       -0.43472
C         -3.42623        0.65747       -0.25206
H         -4.34288        1.20447       -0.44940
C         -3.45841       -0.70706       -0.00630
C         -2.31674       -1.45269        0.24549
H         -2.38559       -2.51997        0.43128
C         -1.08846       -0.80146        0.25184
H         -0.18214       -1.36369        0.44455
N         -4.76020       -1.38558        0.00881
H         -5.42317       -0.94655       -0.64383
H         -4.67297       -2.37629       -0.25433
H         -5.18751       -1.35520        0.94554
