25
id_1014_cb.log	Energy: -208050.2554533
C         -3.50291       -0.48647       -0.13608
H         -4.41497        0.11732       -0.16857
H         -3.54088       -1.10329        0.76868
H         -3.51453       -1.16137       -0.99878
C         -2.25169        0.38696       -0.14433
H         -2.28987        1.08207        0.70225
H         -2.23558        1.00250       -1.05378
C         -0.97279       -0.44832       -0.07577
H         -1.01139       -1.22362       -0.85132
H         -0.94393       -0.96798        0.89160
C          0.30795        0.36731       -0.27021
C          0.42997        1.47621        0.78153
H         -0.32912        2.24602        0.61632
H          1.40774        1.96686        0.74029
H          0.28901        1.07961        1.79369
N          1.48521       -0.52410       -0.35739
C          1.88808       -1.05329        0.94141
H          2.28556       -0.28018        1.61956
H          2.67526       -1.79969        0.79619
H          1.04827       -1.54595        1.43754
C          2.62428        0.15999       -0.95643
H          2.34553        0.56669       -1.93287
H          3.43977       -0.55495       -1.10478
H          3.01804        0.98465       -0.33891
H          0.23733        0.84571       -1.25610
