20
id_1907_ca.log	Energy: -383008.0761762
C          2.25184       -2.38179        0.00001
H          3.26543       -2.78047        0.00001
H          1.72001       -2.71399       -0.89712
H          1.72002       -2.71397        0.89716
O          2.39177       -0.96279       -0.00000
C          1.24664       -0.22304       -0.00000
C         -0.04238       -0.72713       -0.00000
H         -0.22351       -1.79618        0.00000
C         -1.13206        0.15979       -0.00000
C         -0.92387        1.53917       -0.00001
H         -1.76563        2.22261       -0.00001
C          0.37477        2.04379       -0.00001
H          0.56308        3.11284       -0.00001
C          1.45470        1.17181       -0.00000
O          2.72079        1.67020       -0.00000
H          3.35653        0.93061       -0.00000
C         -2.49216       -0.41952       -0.00000
O         -2.73324       -1.61671       -0.00003
O         -3.47046        0.49942        0.00003
H         -4.33167        0.03929        0.00002
