41
id_1119_ca.log	Energy: -506203.5848616
C          2.67804       -1.60102       -0.88362
H          2.24032       -1.43111       -1.87245
H          2.19456       -2.46281       -0.41987
H          3.72758       -1.87523       -1.02250
C          2.62699       -0.32808       -0.01482
C          2.98946       -0.67266        1.44057
H          3.02126        0.23409        2.05370
H          3.98071       -1.13852        1.46387
H          2.27064       -1.36620        1.88317
C          3.71526        0.61405       -0.55853
H          4.65739        0.06152       -0.60893
H          3.88449        1.47688        0.09086
H          3.47347        0.97132       -1.56527
C          1.25406        0.38055       -0.02825
C          1.21277        1.77776       -0.03163
H          2.12298        2.36343       -0.05608
C         -0.00112        2.43310       -0.00945
C         -1.21427        1.77666        0.02052
H         -2.12543        2.36129        0.03524
C         -1.25394        0.37946        0.02823
C          0.00036       -0.25464        0.00214
N          0.00085       -1.72901        0.00026
O          0.26042       -2.29965        1.04302
O         -0.25840       -2.29608       -1.04459
C         -2.62659       -0.32970        0.01590
C         -3.71310        0.61036        0.56710
H         -3.46683        0.96443        1.57389
H         -4.65483        0.05736        0.61992
H         -3.88581        1.47532       -0.07845
C         -2.67559       -1.60606        0.87972
H         -2.23589       -1.44015        1.86835
H         -2.19325       -2.46601        0.41144
H         -3.72484       -1.88077        1.01968
C         -2.99260       -0.66879       -1.43981
H         -3.98367       -1.13502       -1.46270
H         -2.27427       -1.36036       -1.88645
H         -3.02608        0.24021       -2.04952
N         -0.00216        3.90226        0.00620
H         -0.83517        4.28498       -0.46111
H          0.82605        4.28686       -0.46793
H          0.00118        4.26568        0.96993
