20
id_1128_cb.log	Energy: -229705.0733817
C          3.34153       -0.30501        0.06606
H          3.77442        0.15337        0.96182
H          3.83454        0.15192       -0.79907
H          3.59633       -1.36828        0.07477
C          1.84841       -0.10689        0.01469
C          0.96606       -1.18293       -0.05212
H          1.36293       -2.19556       -0.06307
C         -0.41757       -1.00222       -0.09806
H         -1.06588       -1.87100       -0.14349
C         -0.96267        0.28763       -0.08738
C         -0.07799        1.37940       -0.01640
H         -0.48586        2.38738       -0.00005
C          1.29255        1.18042        0.03417
H          1.95167        2.04405        0.09229
N         -2.33535        0.52030       -0.18568
H         -2.59663        1.40396        0.23804
C         -3.24530       -0.55628        0.16934
H         -4.25936       -0.15644        0.20264
H         -3.01361       -1.01195        1.14240
H         -3.22114       -1.34433       -0.58837
