30
id_1262_ca.log	Energy: -303960.8379745
C         -2.09982       -2.46587        0.05123
H         -3.02392       -2.32859        0.62153
H         -1.29807       -2.74204        0.73901
H         -2.24920       -3.29703       -0.64220
C         -1.78231       -1.22550       -0.76070
H         -2.55823       -1.05340       -1.50809
H         -0.81841       -1.28849       -1.27017
N         -1.74990        0.02008        0.08163
C         -1.72164        1.24999       -0.78369
H         -0.74743        1.26828       -1.27666
H         -2.49021        1.09396       -1.54201
C         -2.00603        2.51430        0.00317
H         -2.12003        3.33852       -0.70507
H         -1.20320        2.77526        0.69552
H         -2.94034        2.41729        0.56515
C         -0.66761        0.00602        1.14429
H         -0.83818        0.89159        1.75774
H         -0.85990       -0.87474        1.75817
C          0.72726       -0.00920        0.57715
C          1.36780       -1.22003        0.29434
H          0.85493       -2.15865        0.48840
C          2.66050       -1.23146       -0.22353
H          3.14680       -2.17774       -0.43831
C          3.32924       -0.03132       -0.45726
H          4.33791       -0.04000       -0.85841
C          2.70434        1.17962       -0.16562
H          3.22445        2.11713       -0.33477
C          1.41157        1.18951        0.35192
H          0.93153        2.13488        0.59127
H         -2.63897        0.04697        0.59968
