28
id_139_ca.log	Energy: -409789.2078604
C          5.60694       -0.20993        0.44925
H          5.96203       -1.24018        0.33121
H          6.11890        0.22597        1.31321
H          5.91167        0.35248       -0.44090
C          4.09095       -0.17316        0.62162
H          3.76323        0.86281        0.76821
H          3.80581       -0.72644        1.52626
C          3.36621       -0.77690       -0.57991
H          3.70552       -1.80944       -0.73251
H          3.61822       -0.21973       -1.49186
C          1.85983       -0.81724       -0.42341
H          1.57682       -1.35065        0.49366
H          1.38748       -1.31227       -1.28019
O          1.38683        0.53238       -0.34428
C          0.04851        0.73468       -0.19532
C         -0.36504        2.07288       -0.12416
H          0.38547        2.85540       -0.18998
C         -1.70999        2.38128        0.02635
H         -2.01807        3.42081        0.07997
C         -2.66608        1.36678        0.10870
H         -3.71626        1.60903        0.22545
C         -2.24620        0.03942        0.03630
C         -0.89255       -0.28970       -0.11546
H         -0.60669       -1.33355       -0.16875
C         -3.21739       -1.08381        0.11351
O         -2.91063       -2.26152        0.04195
O         -4.48692       -0.68628        0.27139
H         -5.05943       -1.47671        0.30889
