21
id_1271_cb.log	Energy: -336901.0856818
C         -1.27616        2.38051        0.13773
H         -0.58433        2.55781        0.96820
H         -2.16015        3.00454        0.29177
H         -0.77781        2.72057       -0.77740
C         -1.66834        0.92714        0.04533
C         -3.01690        0.56428        0.12068
H         -3.76439        1.34512        0.23996
C         -3.41743       -0.76919        0.04797
H         -4.47221       -1.02268        0.10582
C         -2.45903       -1.77103       -0.10675
H         -2.75816       -2.81275       -0.17730
C         -1.11268       -1.42753       -0.18326
H         -0.36945       -2.20722       -0.32712
C         -0.69820       -0.08910       -0.10044
C          0.73138        0.26490       -0.17192
H          0.96920        1.27537       -0.49964
C          1.75161       -0.54490        0.14414
H          1.58197       -1.55523        0.51065
C          3.19347       -0.12959        0.03064
O          3.46992        1.04379       -0.35032
O          4.05120       -1.01110        0.33536
