24
id_1058_ca.log	Energy: -495990.0515281
C          1.93616       -1.67436        0.84761
H          2.82964       -2.27874        0.70065
H          1.18241       -2.24393        1.38736
H          2.19208       -0.76128        1.38286
N          1.40997       -1.31847       -0.50286
H          2.11789       -0.75726       -0.99237
C          0.09345       -0.58707       -0.55691
C         -1.05708       -1.50292       -0.14340
H         -1.03154       -2.40570       -0.76306
H         -0.93743       -1.80521        0.90332
C         -2.38540       -0.76094       -0.30734
H         -2.53980       -0.52420       -1.36738
H         -3.20516       -1.41429        0.00411
C         -2.38777        0.53002        0.51130
H         -2.32241        0.28597        1.57905
H         -3.32197        1.07867        0.35998
C         -1.20908        1.42837        0.12439
H         -1.18461        2.32952        0.74252
H         -1.30109        1.73799       -0.92348
C          0.10156        0.67137        0.29924
Cl         1.50378        1.73069       -0.16678
H         -0.02370       -0.30402       -1.60789
H          0.25836        0.42410        1.35201
H          1.30228       -2.18084       -1.05181
