29
id_1037_ca.log	Energy: -233009.7074666
C         -2.58084        1.33970        0.49001
H         -3.18863        0.91505        1.29588
H         -3.24351        1.74394       -0.28064
H         -1.98707        2.16054        0.90013
C         -1.64618        0.29172       -0.08309
C         -0.73465       -0.32474        0.97035
H         -0.18771        0.49937        1.43965
H         -1.36844       -0.75993        1.75455
C          0.24293       -1.38834        0.45943
H          0.87136       -1.69404        1.30331
H         -0.31599       -2.28999        0.17549
C          1.13699       -0.99573       -0.72439
H          0.51731       -0.77850       -1.60600
H          1.71924       -1.88919       -0.98200
C          2.13092        0.16441       -0.51318
H          2.88288        0.05929       -1.30666
C          1.51768        1.55687       -0.68661
H          2.30431        2.31953       -0.67269
H          0.81338        1.80572        0.11447
H          0.98867        1.64108       -1.64257
C          2.86107        0.05795        0.82551
H          3.30761       -0.93365        0.96072
H          2.17759        0.23655        1.66405
H          3.66263        0.80146        0.88855
N         -2.48253       -0.79622       -0.70731
H         -3.03551       -1.28290        0.00986
H         -1.90276       -1.49530       -1.18609
H         -1.06920        0.71059       -0.91026
H         -3.13586       -0.40710       -1.39682
