24
id_1569_ca.log	Energy: -659557.0528887
C         -1.74090       -0.90119       -0.00662
H         -0.90895       -1.59525       -0.01420
C         -3.04322       -1.38456       -0.01402
H         -3.24340       -2.45110       -0.02697
C         -4.08865       -0.47375       -0.00909
C         -3.89206        0.89980        0.00192
H         -4.73764        1.57997        0.00246
C         -2.58865        1.37684        0.00907
H         -2.39587        2.44393        0.01529
C         -1.51929        0.47769        0.00562
C         -0.15327        1.04707        0.00737
O          0.13289        2.21380       -0.00319
O          0.80773        0.05540        0.02212
C          2.12516        0.44068       -0.00546
C          2.97675       -0.83631        0.00588
F          2.74751       -1.52475        1.11859
F          4.26310       -0.50761       -0.04556
F          2.67773       -1.59188       -1.04501
F          2.41581        1.13742       -1.11025
F          2.45212        1.17992        1.06074
N         -5.46447       -0.98552        0.00709
H         -6.10797       -0.35648       -0.49188
H         -5.52690       -1.91402       -0.43188
H         -5.81470       -1.07754        0.97160
