30
id_1623_cb.log	Energy: -3577741.8460784
C          4.49606        1.50228        1.86177
H          3.63590        1.45210        2.54052
H          4.39979        2.40515        1.25198
H          5.40077        1.58813        2.47062
C          4.55145        0.25477        0.98983
H          5.40797        0.33508        0.30830
C          4.72586       -0.99738        1.84917
H          4.83785       -1.89838        1.23863
H          3.85355       -1.12954        2.50132
H          5.61428       -0.90874        2.48266
N          3.34888        0.21750        0.14192
H          2.53681        0.16650        0.76165
C          3.29946       -0.92341       -0.77043
H          4.27191       -1.00012       -1.26949
H          3.09337       -1.88548       -0.28187
C          2.23284       -0.64547       -1.83854
C          0.83872       -0.71672       -1.23619
C          0.29123       -1.95570       -0.89198
H          0.84845       -2.86752       -1.09026
C         -0.96315       -2.03747       -0.30501
H         -1.38742       -3.00112       -0.04491
C         -1.69043       -0.87571       -0.04984
C         -1.15092        0.36199       -0.38955
C          0.10794        0.43929       -0.98174
H          0.51442        1.40708       -1.25437
Br        -2.09194        1.96803       -0.06864
Br        -3.39427       -1.03272        0.74693
O          2.49518        0.61170       -2.43213
H          2.84115        1.15246       -1.69379
H          2.31071       -1.40656       -2.62236
