17
id_1538_ca.log	Energy: -309378.0485577
C          1.86657        1.59935       -0.00000
H          2.62635        2.37549       -0.00001
C          0.53525        1.94843        0.00000
H          0.21679        2.98568        0.00000
C         -0.44110        0.92552        0.00000
C         -0.03866       -0.43366        0.00000
C         -1.06632       -1.40229        0.00000
H         -0.81829       -2.46040       -0.00001
N         -2.34371       -1.08108       -0.00000
C         -2.62314        0.25153       -0.00001
H         -3.67862        0.50640        0.00001
N         -1.77143        1.24660        0.00000
C          1.34730       -0.75741       -0.00000
C          2.28599        0.24874       -0.00000
H          3.34359        0.00030       -0.00001
O          1.66159       -2.08154        0.00000
H          2.62812       -2.19498       -0.00001
