19
id_124_ca.log	Energy: -520530.2356706
C          0.05563        2.70890        0.00740
H          0.06141        3.79290        0.01111
C         -1.15034        2.01748        0.00949
H         -2.08859        2.56037        0.00462
C         -1.17682        0.61938       -0.00043
C          0.03170       -0.07383        0.00854
C          1.23618        0.62364        0.00869
C          1.25767        2.01281        0.00153
H          2.21009        2.53035        0.00797
N          2.52175       -0.08185        0.04487
O          2.52074       -1.25230        0.38811
O          3.51872        0.54502       -0.26038
N          0.01617       -1.55334        0.00225
O          0.22328       -2.10204       -1.06000
O         -0.20782       -2.10599        1.05801
C         -2.47775       -0.11670       -0.07027
O         -2.56906       -1.29396       -0.35017
O         -3.51882        0.66756        0.19259
H         -4.34218        0.14630        0.11132
