15
id_1462_ca.log	Energy: -284843.6185108
C         -2.74694       -0.59731       -0.00001
H         -3.68799       -0.04981       -0.00000
H         -2.67387       -1.21864        0.89775
H         -2.67386       -1.21862       -0.89779
O         -1.71944        0.39619        0.00001
C         -0.44169       -0.05314        0.00001
C         -0.01427       -1.36482        0.00000
H         -0.71914       -2.18942        0.00000
N          1.29841       -1.68382        0.00000
C          2.15147       -0.67304       -0.00000
H          3.20863       -0.91640       -0.00000
N          1.84648        0.63426       -0.00000
C          0.56415        0.93612        0.00000
O          0.24240        2.24191       -0.00000
H         -0.72796        2.34807       -0.00001
