18
id_1360_cb.log	Energy: -286225.8304517
C         -3.45016       -0.59282        0.02679
H         -4.15276       -0.10142       -0.64864
H         -3.85162       -0.52435        1.04268
H         -3.35000       -1.64508       -0.24331
C         -2.14050        0.15115       -0.01502
O         -2.09580        1.37906       -0.02249
N         -1.03087       -0.64320       -0.01590
H         -1.17833       -1.64695       -0.01449
C          0.32273       -0.27518       -0.00704
C          0.76909        1.05122        0.00466
H          0.06648        1.87031        0.00720
C          2.14060        1.26765        0.01339
H          2.52101        2.28430        0.02301
C          3.01467        0.18410        0.00994
H          4.09006        0.31803        0.01636
C          2.46153       -1.08939       -0.00186
H          3.10147       -1.96768       -0.00473
N          1.14693       -1.32823       -0.01029
