24
id_1274_cb.log	Energy: -325327.1749457
C          3.86442       -0.32805        0.05028
H          4.93847       -0.48311        0.07908
C          3.02508       -1.32187       -0.45022
H          3.44346       -2.25287       -0.82052
C          1.64777       -1.12298       -0.48721
H          1.00407       -1.89518       -0.89877
C          1.08323        0.07284       -0.02379
C          1.93735        1.06455        0.47686
H          1.51685        1.99014        0.85961
C          3.31478        0.86615        0.51348
H          3.95914        1.64398        0.91192
C         -0.38731        0.28672       -0.06302
C         -0.91594        1.55672       -0.32975
H         -0.25223        2.39108       -0.53341
C         -2.29674        1.73545       -0.36000
H         -2.70718        2.71882       -0.57039
C         -3.16183        0.67179       -0.13059
H         -4.23846        0.81807       -0.15368
C         -2.64759       -0.60540        0.13601
C         -1.25860       -0.78151        0.16833
H         -0.86138       -1.76654        0.40179
N         -3.50293       -1.69313        0.31214
H         -4.41430       -1.43574        0.67632
H         -3.09572       -2.44314        0.86091
