31
id_1716_ca.log	Energy: -304090.3692246
C         -5.31460       -0.05348       -0.04082
H         -5.42453       -0.23147       -1.11605
H         -6.12605        0.60910        0.27479
H         -5.44578       -1.01310        0.47091
C         -3.94855        0.54746        0.27347
H         -3.84394        1.51620       -0.23089
H         -3.86860        0.74523        1.34982
C         -2.80263       -0.36674       -0.15272
H         -2.87493       -0.56522       -1.23040
H         -2.90117       -1.33589        0.35362
C         -1.43281        0.23374        0.16170
H         -1.34545        0.40933        1.24193
H         -1.34137        1.20306       -0.33939
C         -0.32713       -0.70671       -0.28685
H         -0.26199       -0.77719       -1.37604
H         -0.47991       -1.70840        0.12359
N          1.02966       -0.27433        0.18854
C          2.06699       -1.31417       -0.11707
H          1.76352       -2.24115        0.37187
H          2.06316       -1.44391       -1.20195
C          3.42383       -0.84742        0.37586
H          4.17830       -1.58457        0.09683
H          3.41342       -0.74371        1.47051
O          3.78535        0.38368       -0.22622
C          2.85042        1.39144        0.11653
H          2.83573        1.53617        1.20651
H          3.17641        2.31819       -0.35831
C          1.45724        1.04701       -0.37972
H          1.43565        0.93619       -1.46678
H          0.74077        1.80560       -0.06514
H          0.97978       -0.17042        1.21235
