31
id_1636_ca.log	Energy: -351150.5468585
C          3.44595       -0.63751        1.59626
H          4.51585       -0.85782        1.60650
H          2.90208       -1.54911        1.86527
H          3.24446        0.13242        2.34698
C          3.04860       -0.16982        0.20729
H          3.57033        0.75537       -0.05088
C          3.26919       -1.23061       -0.85587
H          4.31051       -1.55854       -0.80781
H          3.08055       -0.85545       -1.86429
H          2.62761       -2.09907       -0.66877
N          1.58627        0.21001        0.25369
H          1.03664       -0.63090        0.48285
C          1.04723        0.84487       -0.98525
H          1.72998        1.65532       -1.24562
H          1.05453        0.10247       -1.78225
C         -0.34949        1.42329       -0.75975
C         -1.39941        0.39956       -0.34831
C         -1.34122       -0.92980       -0.78151
H         -0.52986       -1.27057       -1.41889
C         -2.32768       -1.84041       -0.40838
H         -2.26254       -2.86872       -0.74992
C         -3.38881       -1.43587        0.39798
H         -4.15545       -2.14668        0.68970
C         -3.45965       -0.11205        0.82487
H         -4.28527        0.21692        1.44829
C         -2.47327        0.79867        0.45389
H         -2.54674        1.82956        0.78561
O         -0.27789        2.51330        0.14697
H         -0.41816        2.18381        1.05023
H         -0.63979        1.85852       -1.72287
H          1.45579        0.86414        1.03694
