21
id_1943_cb.log	Energy: -266547.2253135
C          2.37921        1.58621        0.00001
H          3.00592        1.39284       -0.88015
H          3.00592        1.39284        0.88016
H          2.12572        2.65104        0.00001
C          1.12970        0.74069        0.00000
C         -0.14175        1.32754       -0.00000
H         -0.21144        2.41654       -0.00000
C         -1.32651        0.59044       -0.00000
C         -1.26791       -0.83417       -0.00000
C          0.02606       -1.41678        0.00000
H          0.09040       -2.50501        0.00000
C          1.20236       -0.66427        0.00000
C          2.54586       -1.35171        0.00001
H          3.13831       -1.07268        0.88013
H          3.13831       -1.07269       -0.88012
H          2.43161       -2.43961        0.00001
O         -2.36062       -1.56846       -0.00001
C         -2.67144        1.26585       -0.00001
H         -2.56327        2.35509       -0.00001
H         -3.26503        0.98321        0.87873
H         -3.26502        0.98321       -0.87875
