14
id_1000_cb.log	Energy: -133312.5563048
C          1.56624        0.91494        0.01209
H          1.51045        1.21487        1.06343
H          0.84122        1.52379       -0.54584
H          2.56750        1.15473       -0.35360
N          1.34446       -0.52707       -0.08577
H          1.40245       -0.77886       -1.07281
C         -0.00179       -0.89376        0.37458
H         -0.08558       -1.98497        0.31975
H         -0.08881       -0.61209        1.43031
C         -1.12515       -0.26682       -0.40642
H         -1.15836       -0.51144       -1.46958
C         -2.03243        0.55746        0.11160
H         -2.82648        0.99142       -0.48988
H         -2.01473        0.82112        1.16759
