26
id_1302_cb.log	Energy: -419715.9045072
C          4.52631       -1.12090        0.00018
H          4.93875       -0.62165        0.87898
H          4.75978       -2.18363        0.02139
H          4.92260       -0.66066       -0.90688
O          3.09495       -1.04019        0.01139
C          2.58703        0.19589       -0.01206
O          3.28506        1.19288       -0.03988
C          1.09957        0.22118       -0.00198
C          0.36019       -0.93745        0.01921
H          0.83737       -1.91137        0.02978
C         -1.05592       -0.85963        0.01985
C         -1.84818       -2.03914        0.03179
H         -1.34144       -2.99998        0.05718
C         -3.21776       -1.96790        0.00679
H         -3.81329       -2.87525        0.01543
C         -3.85937       -0.70799       -0.04122
H         -4.94298       -0.65815       -0.07873
C         -3.12108        0.45103       -0.04793
H         -3.63361        1.40581       -0.10553
C         -1.70324        0.40909       -0.00352
C         -0.90158        1.60257        0.00829
C          0.47209        1.48956        0.00117
H          1.08645        2.38460        0.00803
N         -1.51976        2.85025       -0.04085
H         -0.88347        3.60762        0.18734
H         -2.36032        2.92153        0.52348
