26
id_1368_ca.log	Energy: -289370.1066391
C         -3.01535       -0.73831       -1.18220
H         -3.18483       -0.24301       -2.13752
H         -3.91943       -0.71369       -0.57268
H         -2.68467       -1.76487       -1.33621
N         -1.94817        0.00073       -0.44932
C         -2.33941        1.42410       -0.24278
H         -3.16408        1.44541        0.47152
H         -2.65385        1.83320       -1.20234
H         -1.48596        1.98435        0.13575
C         -1.61404       -0.70196        0.83608
H         -2.52313       -0.68110        1.44092
H         -1.38433       -1.73368        0.56448
C         -0.43932       -0.06877        1.57023
H         -0.26007       -0.69343        2.45128
H         -0.69234        0.93226        1.92817
C          0.81140       -0.02524        0.72463
C          1.37925        1.19064        0.34384
H          0.92814        2.12260        0.67045
C          2.52589        1.18326       -0.44537
H          2.98940        2.11572       -0.75192
C          3.06259       -0.03940       -0.82981
H          3.95467       -0.10050       -1.44306
C          2.42173       -1.20085       -0.40752
H          2.81440       -2.17386       -0.69181
N          1.32169       -1.20964        0.35054
H         -1.10509       -0.00789       -1.03819
