22
id_1837_ca.log	Energy: -526194.4425387
C          2.24282        1.06683       -0.59032
H          2.75874        2.00294       -0.78076
C          0.90343        0.90974       -0.92997
H          0.34103        1.71652       -1.38567
C          0.28352       -0.30591       -0.67401
C          0.95702       -1.37575       -0.09574
H          0.44647       -2.31711        0.06972
C          2.29359       -1.21574        0.25122
H          2.85078       -2.03019        0.70314
C          2.90784        0.00221       -0.00170
N          4.31613        0.16738        0.38009
H          4.87551       -0.65725        0.12465
H          4.73899        0.98407       -0.08090
O         -1.04472       -0.45997       -1.08382
C         -2.01080       -0.46446       -0.10997
C         -2.07331        0.80324        0.74518
H         -2.99276        0.84868        1.33033
F         -1.99401        1.86709       -0.08506
F         -1.00095        0.82537        1.56925
F         -3.17727       -0.60316       -0.75268
F         -1.86294       -1.51856        0.72024
H          4.41793        0.30275        1.39557
