17
id_1661_cb.log	Energy: -1818488.6303933
C          1.32707       -1.20191       -0.27758
H          1.86389       -2.14576       -0.33434
C         -0.05822       -1.21311       -0.13813
H         -0.60284       -2.14959       -0.08659
C         -0.73387       -0.00003       -0.07025
C         -0.05813        1.21299       -0.13837
H         -0.60269        2.14952       -0.08701
C          1.32715        1.20166       -0.27781
H          1.86404        2.14546       -0.33476
C          2.03649       -0.00016       -0.35034
C          3.54538       -0.00020       -0.43102
H          3.88152        0.88086       -0.98464
H          3.88152       -0.88173       -0.98388
N          4.21778        0.00037        0.87656
H          3.87356       -0.80701        1.39736
H          3.87355        0.80819        1.39667
Br        -2.62492        0.00006        0.11378
