27
id_1396_ca.log	Energy: -313274.4082341
C         -1.71227       -1.14789       -0.47313
H         -1.22879       -2.05139       -0.83409
C         -2.94680       -0.76162       -0.98082
H         -3.43067       -1.36316       -1.74522
N         -3.60750        0.33116       -0.57864
C         -3.02491        1.07873        0.36464
H         -3.57043        1.96211        0.68490
C         -1.78952        0.78321        0.93345
H         -1.36673        1.42980        1.69615
C         -1.11436       -0.35746        0.50792
C          0.23334       -0.72210        1.07178
H          0.29345       -1.78878        1.29924
H          0.46643       -0.14271        1.96756
N          1.31821       -0.43473        0.08288
C          1.44512        1.02055       -0.30103
H          0.72484        1.22825       -1.09105
H          1.18652        1.59865        0.58796
C          2.91828        1.20248       -0.71001
H          3.00519        1.52028       -1.74942
H          3.37571        1.96750       -0.08043
C          3.58622       -0.16781       -0.47688
H          4.61004       -0.08182       -0.11121
H          3.59632       -0.75636       -1.39858
C          2.68702       -0.84099        0.54576
H          2.81235       -0.42272        1.54782
H          2.74058       -1.92892        0.58005
H          1.11759       -0.96828       -0.77349
