13
id_1737_cb.log	Energy: -237382.2426458
C          2.07215       -0.99272       -0.00001
H          2.60827       -0.61968        0.88057
H          2.60828       -0.61964       -0.88055
H          2.12800       -2.08550       -0.00003
C          0.64550       -0.53460       -0.00000
C         -0.41650       -1.40284       -0.00001
H         -0.23551       -2.47701       -0.00003
N         -1.71858       -1.01800       -0.00001
C         -1.89502        0.29997       -0.00000
H         -2.92830        0.64295       -0.00001
N         -0.96869        1.25648        0.00001
C          0.34422        0.87426        0.00001
O          1.26600        1.75313        0.00002
