22
id_1488_ca.log	Energy: -324245.6513128
C         -3.64127       -1.07641       -0.00002
H         -4.19255       -0.78289       -0.89378
H         -4.19238       -0.78326        0.89397
H         -3.46329       -2.14951       -0.00026
N         -2.34211       -0.37897       -0.00001
C         -2.35414        0.99594       -0.00001
H         -3.33472        1.45579       -0.00002
C         -1.18459        1.69389        0.00001
H         -1.20985        2.77862        0.00001
C          0.05586        1.00639        0.00001
C          1.30965        1.66738        0.00000
H          1.33823        2.75288       -0.00001
C          2.47200        0.93937       -0.00001
H          3.43786        1.43863       -0.00003
C          2.43845       -0.48187        0.00000
C          1.24187       -1.15908        0.00002
H          1.21793       -2.24471        0.00003
C          0.03916       -0.41527        0.00002
C         -1.21047       -1.06631        0.00002
H         -1.29024       -2.14817        0.00004
O          3.59017       -1.20871       -0.00002
H          4.36332       -0.61903       -0.00004
