32
id_1973_ca.log	Energy: -609183.2676208
C          1.39987       -0.39794        2.10112
H          2.46963       -0.37379        2.32907
H          0.90641        0.38644        2.67954
H          0.99430       -1.36643        2.40782
C          1.16102       -0.21086        0.59571
C          1.88037       -1.31411       -0.19376
H          1.60747       -2.29821        0.19952
H          1.60316       -1.30214       -1.25463
C          3.38035       -1.19010       -0.15154
O          3.99688       -0.19308        0.17311
O          3.98648       -2.31436       -0.55275
H          4.95458       -2.17808       -0.54698
C         -0.35006       -0.21701        0.33212
C         -1.12088        0.85145        0.81681
H         -0.64372        1.67370        1.34349
C         -2.49611        0.88378        0.63885
H         -3.08779        1.71256        1.00957
C         -3.09712       -0.17921       -0.02813
C         -2.37176       -1.25789       -0.51496
H         -2.86834       -2.07327       -1.02776
C         -0.99201       -1.26736       -0.33215
H         -0.43259       -2.11261       -0.71598
N         -4.54580       -0.15928       -0.22302
O         -5.17564        0.79820        0.20300
O         -5.06749       -1.10005       -0.80416
C          1.68016        1.16226        0.15822
O          1.95943        2.07093        0.91519
O          1.73924        1.27174       -1.16839
C          2.22393        2.52425       -1.67935
H          3.24141        2.69858       -1.32260
H          1.56717        3.33676       -1.36296
H          2.21097        2.42082       -2.76261
