26
id_1687_cb.log	Energy: -231965.1837593
C         -3.34324       -0.24006       -0.20255
H         -3.50946        0.72410        0.28512
H         -4.17704       -0.89368        0.07013
H         -3.37055       -0.08807       -1.28616
C         -2.03145       -0.88634        0.21996
H         -2.00117       -1.91212       -0.16341
H         -1.99749       -0.96076        1.32358
N         -0.83649       -0.20181       -0.28020
C         -0.73534        1.14072        0.29936
H         -0.72697        1.07848        1.40629
H         -1.61841        1.71844        0.01435
C          0.52036        1.86396       -0.17432
H          0.45844        2.01211       -1.25960
H          0.55918        2.85583        0.28829
C          1.77136        1.05656        0.16258
H          1.88699        1.00480        1.25545
H          2.67091        1.54109       -0.23463
C          1.64940       -0.36770       -0.38004
C          0.34040       -0.98488        0.10600
H          0.23050       -1.99541       -0.30477
H          0.38970       -1.08842        1.20982
C          2.83412       -1.23326        0.03507
H          3.77684       -0.80049       -0.31559
H          2.75258       -2.24599       -0.37409
H          2.88787       -1.31395        1.12734
H          1.60987       -0.31737       -1.47708
