30
id_1057_ca.log	Energy: -256922.1913446
C         -3.58764       -0.43746       -0.62321
H         -3.51163       -0.86847       -1.62427
H         -4.39685        0.29863       -0.62415
H         -3.83514       -1.23847        0.08105
C         -2.26245        0.20455       -0.25629
C         -1.11396       -0.79649       -0.24182
H         -1.40524       -1.64556        0.39201
H         -1.02712       -1.18048       -1.26620
C          0.25220       -0.26856        0.20863
H          0.19510        0.02764        1.26902
C          0.71327        0.95083       -0.59939
H          0.72269        0.68019       -1.66587
H          0.00333        1.78003       -0.48824
C          2.10920        1.41473       -0.17535
H          2.42107        2.26880       -0.78643
H          2.06736        1.76536        0.86525
C          3.13065        0.28155       -0.27880
H          3.23300       -0.01584       -1.33173
H          4.11597        0.62572        0.05442
C          2.68187       -0.92897        0.54103
H          2.65767       -0.65508        1.60484
H          3.40075       -1.74932        0.43871
C          1.29035       -1.39337        0.10986
H          0.96557       -2.24906        0.71410
H          1.33145       -1.73635       -0.93454
N         -2.40533        0.82437        1.11107
H         -1.57892        1.37658        1.36833
H         -2.53382        0.09668        1.82590
H         -2.04793        1.04042       -0.92511
H         -3.22100        1.44707        1.14743
