33
id_1698_ca.log	Energy: -281572.7385330
C         -1.66691       -0.85594        1.41519
H         -1.03346       -0.31709        2.12431
H         -1.58471       -1.92395        1.64237
H         -2.70020       -0.54567        1.60435
C         -1.31308       -0.60315       -0.05781
C          0.00382       -1.26921       -0.50390
H          0.00614       -2.31778       -0.18087
H          0.00409       -1.27325       -1.60259
C          1.31656       -0.59688       -0.05637
C          1.23615        0.90310       -0.34547
H          1.19378        1.09568       -1.42259
H          2.08829        1.43919        0.08090
N         -0.00498        1.53467        0.21780
C         -1.24063        0.89629       -0.35058
H         -2.09742        1.42830        0.07164
H         -1.19465        1.08751       -1.42780
C         -0.00877        3.00359       -0.02519
H         -0.00834        3.16771       -1.10343
H         -0.90579        3.42758        0.42519
H          0.88509        3.43257        0.42673
C          2.46075       -1.15105       -0.91361
H          2.56999       -2.22653       -0.73796
H          3.40943       -0.66674       -0.65769
H          2.26825       -0.99477       -1.98009
C          1.67011       -0.85737        1.41483
H          1.00343       -0.36687        2.12817
H          2.68570       -0.50145        1.61924
H          1.63871       -1.93265        1.61957
C         -2.45264       -1.16916       -0.91330
H         -3.40386       -0.68628       -0.66439
H         -2.55825       -2.24342       -0.72776
H         -2.25769       -1.02231       -1.98064
H         -0.00585        1.39626        1.23602
