23
id_1428_ca.log	Energy: -254005.0315795
C          3.45597        0.56293       -0.26395
H          3.39376        0.58267       -1.34960
H          4.26939        1.11420        0.19765
C          2.57919       -0.12107        0.46488
H          2.64677       -0.14059        1.55139
C          1.47715       -0.92449       -0.15007
H          1.51016       -1.96838        0.17297
H          1.50228       -0.88097       -1.24160
N          0.12346       -0.41204        0.26393
C         -0.11807        0.99596       -0.19362
H          0.64377        1.63430        0.25499
H         -0.00539        0.98945       -1.28079
C         -1.51264        1.43192        0.21679
H         -1.70379        2.43049       -0.17928
H         -1.59099        1.46239        1.31313
O         -2.49924        0.56511       -0.31587
C         -2.31782       -0.75074        0.17795
H         -2.40705       -0.75791        1.27386
H         -3.10768       -1.37336       -0.24510
C         -0.96937       -1.30713       -0.24004
H         -0.87114       -1.33200       -1.32794
H         -0.80131       -2.30246        0.17457
H          0.08442       -0.41876        1.29346
