26
id_1585_cb.log	Energy: -279017.9875545
C          2.45357       -1.88108       -0.13769
H          1.70072       -1.91087       -0.93234
H          2.59300       -2.90461        0.22337
H          3.39799       -1.54982       -0.58473
C          2.03352       -0.95067        0.99773
H          2.73908       -1.05246        1.83007
H          1.05367       -1.26013        1.38233
C          1.98131        0.52146        0.58775
H          2.98344        0.85666        0.29249
H          1.68446        1.13180        1.45224
C          1.02580        0.83299       -0.56835
C         -0.38093        0.33518       -0.28088
C         -0.96759       -0.65356       -1.07315
H         -0.40793       -1.06437       -1.91077
C         -2.25851       -1.11252       -0.80762
H         -2.69919       -1.88030       -1.43671
C         -2.97976       -0.58475        0.25976
H         -3.98451       -0.93874        0.46943
C         -2.40395        0.40475        1.05873
H         -2.96091        0.82149        1.89279
C         -1.11662        0.85949        0.78940
H         -0.67726        1.63283        1.41660
N          1.09911        2.27423       -0.85444
H          0.76997        2.77058       -0.02472
H          0.41210        2.48766       -1.57767
H          1.38054        0.31286       -1.46533
