34
id_1552_cb.log	Energy: -636073.3322707
C         -0.89526        3.43897       -0.56778
H         -1.48324        4.16685       -0.00232
H         -1.54495        2.96900       -1.31129
H         -0.08930        3.96757       -1.08369
C         -0.32942        2.41141        0.38118
H         -1.12095        1.85333        0.89036
H          0.32359        2.86880        1.12854
O          0.46189        1.47770       -0.40504
P          1.17313        0.28004        0.36264
O          1.81716        0.62552        1.65086
O          2.10624       -0.21991       -0.82163
C          2.93340       -1.39744       -0.60268
H          2.41919       -2.07757        0.08395
H          2.99811       -1.87799       -1.57937
C          4.29467       -0.99513       -0.08288
H          4.92497       -1.88410        0.00951
H          4.21314       -0.52206        0.89906
H          4.77520       -0.29836       -0.77470
O          0.08596       -0.86269        0.59084
C         -0.56676       -1.47189       -0.54847
H         -0.55239       -0.78258       -1.39652
H          0.00054       -2.36612       -0.82117
C         -1.97529       -1.86220       -0.15910
H         -1.92444       -2.59504        0.65317
H         -2.41648       -2.37375       -1.03544
N         -2.80896       -0.74813        0.28449
C         -4.12131       -1.27168        0.64652
H         -4.02108       -2.01079        1.44633
H         -4.62625       -1.75461       -0.20854
H         -4.75876       -0.45864        1.00439
C         -2.96934        0.23635       -0.77998
H         -3.40731       -0.20541       -1.69323
H         -2.00855        0.68437       -1.04407
H         -3.62951        1.03815       -0.43712
