25
id_1299_ca.log	Energy: -348889.5177028
C          3.62778        1.16161        0.00002
H          3.27278        1.68231        0.89534
H          3.27282        1.68234       -0.89529
H          4.71675        1.13112        0.00005
O          3.19868       -0.19443       -0.00001
C          1.86181       -0.42605       -0.00001
C          1.50024       -1.80189       -0.00001
H          2.29572       -2.53995       -0.00001
C          0.18519       -2.16636       -0.00000
H         -0.09470       -3.21572       -0.00000
C         -0.84632       -1.18610       -0.00000
C         -2.21595       -1.55044        0.00001
H         -2.46899       -2.60684        0.00001
C         -3.20176       -0.59557        0.00001
H         -4.24858       -0.87719        0.00002
C         -2.85307        0.77310        0.00001
H         -3.62377        1.53854        0.00001
C         -1.53278        1.12906       -0.00000
C         -0.47303        0.18679       -0.00000
C          0.89887        0.55819       -0.00001
H          1.18508        1.60334       -0.00001
N         -1.18668        2.55557       -0.00001
H         -0.63227        2.81606       -0.82824
H         -2.03111        3.14230       -0.00002
H         -0.63228        2.81607        0.82822
