20
id_1331_cb.log	Energy: -182628.7936867
C         -2.45179       -0.18119       -0.14353
H         -3.11249       -0.55058       -0.93340
H         -2.37168        0.90592       -0.24807
H         -2.91866       -0.39631        0.82233
C         -1.08419       -0.83659       -0.24582
H         -0.67010       -0.65206       -1.24337
H         -1.18659       -1.92304       -0.15163
N         -0.21349       -0.38859        0.84487
C          0.50742        0.88147        0.67002
C          1.23581       -0.41176        0.60804
C          1.85235       -0.94478       -0.66366
H          1.46866       -0.46916       -1.56797
H          1.69117       -2.02485       -0.75217
H          2.93275       -0.77335       -0.63373
C          0.33642        1.78556       -0.52739
H          0.14600        1.24785       -1.45806
H          1.24522        2.38079       -0.66697
H         -0.49276        2.48137       -0.36534
H          0.59246        1.43853        1.60155
H          1.79424       -0.70120        1.49674
