30
id_1319_cb.log	Energy: -327578.2383234
C          3.66740        0.27777       -0.99154
H          3.34765        0.39297       -2.03105
H          4.65944       -0.18421       -0.98849
H          3.76852        1.28182       -0.54707
N          2.73256       -0.58125       -0.27348
C          3.20054       -0.73177        1.10148
H          4.16190       -1.25436        1.09666
H          2.49933       -1.32935        1.68899
H          3.34822        0.23223        1.61487
C          1.36045       -0.04874       -0.35409
C          1.07066        1.18901        0.50346
H          1.03435        0.89865        1.56160
H          1.86252        1.93817        0.39555
C         -0.27044        1.79307        0.09145
H         -0.16591        2.25248       -0.90104
H         -0.55746        2.60073        0.77357
C         -1.37928        0.76286        0.03739
C         -2.71509        1.18220        0.04323
H         -2.92928        2.24689        0.10670
C         -3.76056        0.26913       -0.02879
H         -4.78925        0.61661       -0.02156
C         -3.47710       -1.09502       -0.10796
H         -4.28290       -1.82054       -0.16634
C         -2.15406       -1.52072       -0.11336
H         -1.92728       -2.58278       -0.17666
C         -1.09423       -0.60842       -0.03945
C          0.32954       -1.12851       -0.02762
H          0.42059       -1.95724       -0.73803
H          0.53978       -1.54634        0.96618
H          1.21475        0.23789       -1.40480
