21
id_1485_cb.log	Energy: -253612.8020312
C          2.55112        0.70268       -0.01925
H          3.48925        1.24928       -0.03243
C          2.54995       -0.69214        0.03235
H          3.48698       -1.24035        0.05510
C          1.33997       -1.37721        0.04994
H          1.33155       -2.46470        0.08750
C          0.12241       -0.69030        0.01612
C          0.12145        0.70953       -0.03198
C          1.34325        1.39115       -0.05008
H          1.33845        2.47841       -0.08542
C         -1.18568        1.47126       -0.07684
H         -1.36344        1.82442       -1.10186
H         -1.11760        2.36583        0.55253
C         -2.36048        0.59853        0.35516
H         -3.30420        1.11459        0.15928
H         -2.31003        0.40803        1.43347
N         -2.37317       -0.70418       -0.32141
H         -2.30102       -0.51640       -1.32297
C         -1.18181       -1.46432        0.05976
H         -1.33325       -1.84090        1.07964
H         -1.10555       -2.34407       -0.58610
