13
id_10_ca.log	Energy: -2008975.9845339
C          1.34745       -1.21337        0.00114
H          1.87805       -2.16158        0.00286
C         -0.04408       -1.21351        0.00068
H         -0.58503       -2.15408        0.00148
C         -0.72552       -0.00078        0.00015
C         -0.03905        1.20842       -0.00037
H         -0.57623        2.15125       -0.00091
C          1.35345        1.20516       -0.00083
H          1.88552        2.15231       -0.00204
C          2.05176       -0.00537        0.00025
S          3.82693       -0.07710       -0.00206
H          4.03012        1.25090        0.02806
Br        -2.61507        0.00319       -0.00007
