19
id_1019_cb.log	Energy: -158744.4689429
C          3.17398        0.21187       -0.00001
H          3.25170        0.85387        0.88433
H          3.25170        0.85380       -0.88440
H          4.03403       -0.46481        0.00002
C          1.85529       -0.55500        0.00002
H          1.80858       -1.21069        0.87899
H          1.80858       -1.21074       -0.87892
C          0.64036        0.36999       -0.00001
H          0.68633        1.02738       -0.87967
H          0.68632        1.02740        0.87964
C         -0.68780       -0.38265       -0.00001
H         -0.74120       -1.03712        0.88155
H         -0.74122       -1.03709       -0.88159
C         -1.89628        0.54738        0.00002
H         -1.85074        1.20199       -0.87781
H         -1.85074        1.20194        0.87789
N         -3.20141       -0.12279       -0.00001
H         -3.22332       -0.74798        0.80630
H         -3.22332       -0.74792       -0.80635
