11
id_1886_ca.log	Energy: -745125.0306207
C         -1.07909       -0.09464        0.97451
H         -1.63473        0.70085        1.46899
H         -1.10338       -0.99906        1.58218
C          0.36189        0.32631        0.74257
C          1.14270       -0.71628       -0.04986
O          1.77692       -0.51224       -1.05801
O          1.03615       -1.90632        0.54220
H          1.54548       -2.57001        0.03578
Cl         0.46358        1.91948       -0.05567
Cl        -1.91675       -0.46661       -0.57295
H          0.83906        0.42560        1.72275
