33
id_1125_ca.log	Energy: -328616.6153521
C         -0.62531        2.38630       -0.99159
H         -0.53156        2.07673       -2.03734
H          0.37249        2.55164       -0.57585
H         -1.17037        3.33335       -0.96364
C         -1.40985        1.37116       -0.17747
H         -2.41363        1.28634       -0.59555
C         -1.48757        1.74175        1.29173
H         -2.00762        0.99058        1.89224
H         -2.05226        2.67546        1.36183
H         -0.49486        1.91930        1.71321
N         -0.81247       -0.02741       -0.40208
C          0.63715       -0.09243       -0.13933
C          1.11683       -0.14669        1.16567
H          0.44229       -0.15879        2.01462
C          2.49335       -0.20104        1.37071
H          2.87626       -0.24509        2.38473
C          3.37075       -0.20459        0.28835
H          4.44144       -0.24871        0.45854
C          2.87211       -0.15969       -1.01105
H          3.54796       -0.16971       -1.85956
C          1.49817       -0.10566       -1.23033
H          1.10101       -0.07470       -2.24121
C         -1.58247       -1.17769        0.25160
H         -1.41401       -1.08320        1.32555
C         -1.00551       -2.48841       -0.26327
H         -1.56490       -3.31151        0.18731
H          0.04833       -2.60947       -0.00419
H         -1.11582       -2.55344       -1.35163
C         -3.06553       -1.06176       -0.06427
H         -3.53960       -0.21181        0.43059
H         -3.55620       -1.97151        0.29020
H         -3.22763       -0.98702       -1.14545
H         -0.92670       -0.18418       -1.41434
