22
id_1676_cb.log	Energy: -357981.6641592
C         -3.33361       -0.51427        1.37207
H         -3.62491       -1.51812        1.04743
H         -3.96731       -0.23484        2.21679
H         -2.29429       -0.56497        1.72671
N         -3.54920        0.42450        0.27196
H         -3.25284        1.34816        0.58828
C         -2.73738        0.08045       -0.89899
H         -3.06453       -0.89814       -1.26436
H         -2.94628        0.81454       -1.68301
C         -1.24548        0.04400       -0.64141
C         -0.54614       -1.16549       -0.60896
H         -1.07389       -2.09435       -0.80556
C          0.81506       -1.19682       -0.32954
H          1.36492       -2.12959       -0.30297
C          1.45968        0.00774       -0.07851
C          0.79809        1.23211       -0.09626
H          1.33770        2.14998        0.10262
C         -0.55975        1.23662       -0.37821
H         -1.09870        2.18028       -0.39940
N          2.88976       -0.01107        0.21552
O          3.46737       -1.08767        0.22228
O          3.44931        1.05104        0.44272
