10
id_1443_cb.log	Energy: -212692.4829580
C          1.20120        0.28157        0.00000
H          2.16598        0.78149        0.00000
C          1.12049       -1.10282        0.00000
H          2.02685       -1.70315        0.00000
N         -0.01609       -1.81032       -0.00000
N         -1.16853       -1.12804       -0.00000
C         -1.17047        0.19103       -0.00000
H         -2.15035        0.66469       -0.00000
C          0.00000        1.02597        0.00000
O         -0.08218        2.30638       -0.00000
