9
id_12_cb.log	Energy: -120823.7140640
C         -1.50805       -0.48798        0.00000
H         -1.10101       -1.49675        0.00001
H         -2.59061       -0.38865        0.00000
C         -0.70645        0.57981       -0.00000
H         -1.14553        1.58042       -0.00001
C          0.80565        0.53963        0.00000
H          1.12056        1.14934        0.87624
H          1.12057        1.14936       -0.87622
O          1.38114       -0.72282       -0.00000
