29
id_1392_cb.log	Energy: -337639.5889761
C         -3.82397       -1.07524        0.18371
H         -4.45077       -1.94637        0.34103
C         -2.51938       -1.02852        0.66208
H         -2.09612       -1.86955        1.20621
C         -1.75246        0.11614        0.44279
C         -2.35343        1.15950       -0.26317
H         -1.78524        2.06907       -0.45248
N         -3.60474        1.13571       -0.73420
C         -4.31849        0.02685       -0.50609
H         -5.33458        0.01983       -0.89166
C         -0.31759        0.21229        0.88765
H         -0.17989       -0.33248        1.82766
H         -0.06251        1.26202        1.06819
C          0.61409       -0.37316       -0.17605
H          0.47842        0.19369       -1.11804
H          0.31293       -1.40769       -0.38030
N          2.01372       -0.37538        0.22475
C          2.85199       -0.96507       -0.82486
H          2.70085       -2.04688       -0.88154
H          2.59184       -0.53481       -1.80945
C          4.27491       -0.55981       -0.43582
H          4.71821       -1.31049        0.22353
H          4.91897       -0.46450       -1.31267
C          4.08319        0.78029        0.31728
H          4.57821        1.61606       -0.18205
H          4.48692        0.71496        1.33067
C          2.56190        0.98094        0.35134
H          2.23834        1.60300       -0.50376
H          2.21706        1.46657        1.26756
