26
id_1074_cb.log	Energy: -396420.1600183
C          4.10523       -1.13279        0.07668
H          5.02980       -1.70160        0.08934
C          2.97586       -1.62623        0.72679
H          3.02140       -2.57267        1.25595
C          1.78489       -0.90475        0.70216
H          0.91095       -1.28540        1.22175
C          1.72413        0.32418        0.03615
C          2.86889        0.82578       -0.59351
H          2.81808        1.78667       -1.09622
C          4.05066        0.09432       -0.58534
H          4.93058        0.48082       -1.08972
C          0.49248        1.17520        0.04202
O          0.61578        2.39981        0.07649
C         -0.84640        0.55232        0.00832
C         -1.08159       -0.73393       -0.50300
H         -0.25645       -1.32981       -0.88043
C         -2.36358       -1.25169       -0.56572
H         -2.53534       -2.24316       -0.97484
C         -3.46100       -0.50115       -0.10439
C         -3.22916        0.79244        0.40594
H         -4.07108        1.37771        0.76484
C         -1.94826        1.30622        0.44579
H         -1.77900        2.30528        0.83598
N         -4.73951       -0.99435       -0.20368
H         -5.42783       -0.57380        0.40920
H         -4.82366       -2.00156       -0.27334
