12
id_1524_cb.log	Energy: -199310.7174473
C         -3.28969       -0.30131        0.00001
H         -4.37676       -0.33319        0.00001
C         -2.55703       -1.49296        0.00000
H         -3.05229       -2.45870        0.00000
C         -1.16248       -1.41818       -0.00000
H         -0.57001       -2.32892       -0.00000
C         -0.52548       -0.18207        0.00000
C         -1.22552        1.06034        0.00001
C         -2.64727        0.92963        0.00001
H         -3.22684        1.85039        0.00001
O         -0.64164        2.21884        0.00001
I          1.60007       -0.11421       -0.00000
