14
id_1113_cb.log	Energy: -3407278.8749290
C         -1.21059        1.44613       -0.00611
H         -2.15279        1.98394       -0.00472
C         -0.00000        2.15738       -0.00931
C          1.21059        1.44613       -0.00611
H          2.15279        1.98394       -0.00472
C          1.18207        0.06139       -0.00403
C         -0.00000       -0.67102       -0.00369
H          0.00000       -1.75336       -0.00094
C         -1.18207        0.06139       -0.00403
Br        -2.82754       -0.88502        0.00246
Br         2.82754       -0.88502        0.00246
N          0.00000        3.53883       -0.07532
H          0.84074        3.97851        0.28274
H         -0.84074        3.97851        0.28274
