21
id_1908_cb.log	Energy: -360196.1307900
C          2.49126       -1.43345        0.08971
H          3.10863       -2.31914        0.21119
C          3.00768       -0.17118        0.37599
H          4.03067       -0.06058        0.72404
C          2.19757        0.95314        0.21456
H          2.59283        1.94166        0.43851
C          0.87847        0.83525       -0.23235
C          0.35401       -0.43880       -0.52247
C          1.17484       -1.55787       -0.35586
H          0.77199       -2.54307       -0.58180
C         -1.07072       -0.61568       -0.97420
H         -1.15848       -1.54351       -1.55395
H         -1.38938        0.20056       -1.62921
C         -2.09737       -0.73062        0.16650
O         -1.69665       -1.07317        1.31254
O         -3.30464       -0.51412       -0.14163
C          0.03889        2.07964       -0.39775
H         -0.30095        2.18569       -1.43296
H          0.63970        2.96217       -0.14878
O         -1.15328        2.05779        0.38856
H         -0.90618        1.88976        1.31251
