24
id_1055_ca.log	Energy: -207610.1148261
C         -2.95694        0.00000        0.03838
H         -3.46768       -0.88647       -0.35214
H         -3.46768        0.88647       -0.35215
H         -3.06902        0.00000        1.12925
C         -1.48122       -0.00000       -0.34530
H         -1.39922       -0.00000       -1.44244
C         -0.77472        1.25464        0.17825
H         -1.25265        2.15340       -0.22610
H         -0.88717        1.29436        1.27110
C          0.71341        1.26271       -0.17765
H          1.20895        2.14766        0.23625
H          0.83344        1.29053       -1.26918
C          1.37719       -0.00000        0.35261
H          1.37259       -0.00000        1.44633
C          0.71341       -1.26271       -0.17766
H          0.83344       -1.29052       -1.26919
H          1.20896       -2.14766        0.23624
C         -0.77472       -1.25464        0.17825
H         -0.88716       -1.29436        1.27110
H         -1.25264       -2.15340       -0.22609
N          2.82630       -0.00000       -0.04333
H          3.31030        0.83056        0.31777
H          2.92266        0.00002       -1.06644
H          3.31030       -0.83056        0.31776
