19
id_1820_cb.log	Energy: -333333.7807203
C          3.90274       -0.63111        0.00003
H          3.78423       -1.25995        0.88888
H          4.90932       -0.21534        0.00004
H          3.78427       -1.26002       -0.88878
N          2.95750        0.46569       -0.00003
H          3.31708        1.41079        0.00004
C          1.61921        0.30262       -0.00002
C          0.76755        1.43969       -0.00000
H          1.21358        2.42961        0.00001
C         -0.59829        1.29485        0.00001
H         -1.24551        2.16377        0.00002
C         -1.15345        0.00763       -0.00000
C         -0.34006       -1.12816       -0.00002
H         -0.78917       -2.11424       -0.00002
C          1.03167       -0.98766       -0.00002
H          1.65883       -1.87140       -0.00003
N         -2.57587       -0.14468        0.00000
O         -3.28086        0.86316        0.00000
O         -3.05417       -1.27786        0.00001
