20
id_1975_cb.log	Energy: -313008.5202438
C         -3.88998       -0.14603        0.51616
H         -4.33542        0.85071        0.57936
H         -4.01519       -0.63906        1.48620
H         -4.45850       -0.72671       -0.21875
C         -2.43445       -0.06696        0.13251
C         -1.82059        1.15488       -0.15409
H         -2.40343        2.07156       -0.09538
C         -0.47332        1.21683       -0.51922
H         -0.01850        2.18008       -0.74040
C          0.29866        0.05720       -0.60947
C         -0.31473       -1.16937       -0.32120
H          0.26965       -2.08541       -0.38575
C         -1.65655       -1.22979        0.04450
H         -2.11262       -2.19376        0.26201
C          1.76300        0.10709       -0.96911
H          1.98657        1.04878       -1.48408
H          2.02139       -0.71749       -1.63854
C          2.66739        0.04323        0.27326
O          3.57293       -0.83716        0.29614
O          2.45576        0.88826        1.18827
