20
id_1892_ca.log	Energy: -359235.1234689
C          0.82737        0.70222        1.03295
H          1.10072       -0.07276        1.75569
H          0.16257        1.40997        1.53469
C          0.11957        0.07089       -0.17812
C         -0.43399        1.14894       -1.13254
H         -0.79878        0.66955       -2.04537
H          0.37715        1.83580       -1.39664
O         -1.53817        1.85372       -0.58441
H         -1.21498        2.49473        0.06899
C          1.08936       -0.80086       -0.99078
H          1.83509       -0.15399       -1.46108
H          0.54117       -1.32035       -1.78337
O          1.81247       -1.72503       -0.19009
H          1.22116       -2.45108        0.06733
C         -1.07146       -0.76855        0.25352
O         -1.64072       -1.55795       -0.47774
O         -1.46720       -0.54320        1.50948
H         -2.24977       -1.09577        1.70617
O          1.97656        1.44110        0.64167
H          2.69721        0.81894        0.45215
