26
id_199_ca.log	Energy: -278686.3809518
C          2.70077       -0.18402        0.85200
H          2.77397       -1.16580        1.31828
H          2.86373        0.60193        1.58873
H          3.41159       -0.09531        0.03017
N          1.32462       -0.03386        0.28846
C          1.14979        1.37155       -0.23410
H          1.30084        2.02555        0.62748
H          1.96594        1.52303       -0.94438
C         -0.18848        1.65067       -0.89905
H         -0.14588        2.69884       -1.20875
H         -0.28943        1.06875       -1.81933
C         -1.41619        1.46404       -0.00214
H         -2.30221        1.78834       -0.56380
H         -1.34512        2.07243        0.90409
C         -1.66933        0.03152        0.40359
O         -1.91089       -0.26665        1.56364
C         -1.56252       -1.05284       -0.64879
H         -2.40629       -1.73243       -0.49964
H         -1.62082       -0.64006       -1.65905
C         -0.26465       -1.85906       -0.46604
H         -0.28327       -2.70746       -1.15553
H         -0.23892       -2.27110        0.54966
C          1.03733       -1.11684       -0.73541
H          1.05447       -0.64660       -1.72064
H          1.86909       -1.81968       -0.68065
H          0.68682       -0.16032        1.08468
