17
id_1988_cb.log	Energy: -181275.0928431
C         -2.28822       -0.66187       -0.12620
H         -1.99490       -1.56447        0.41850
H         -2.25590       -0.89069       -1.19740
H         -3.32640       -0.44012        0.13739
C         -1.37780        0.51900        0.20484
H         -1.34777        0.67736        1.29172
H         -1.78726        1.43635       -0.23519
C          0.05464        0.35465       -0.29850
C          0.74120       -0.87524        0.28808
H          0.25171       -1.79597       -0.04082
H          0.67906       -0.83043        1.38849
O          2.09452       -0.93153       -0.13725
H          2.36767        0.00654       -0.14746
N          0.92222        1.50484        0.00151
H          0.78423        1.75090        0.98362
H          0.59604        2.30985       -0.53095
H          0.04294        0.23983       -1.38972
