19
id_1791_ca.log	Energy: -468642.2870156
C          0.00001       -2.40535        1.40576
H         -0.00001       -3.49721        1.43066
H         -0.89751       -2.03178        1.90342
H          0.89753       -2.03179        1.90341
S          0.00000       -1.92434       -0.34974
C         -0.00000       -0.15495       -0.13537
C          1.20192        0.57076       -0.05416
C          1.21234        1.95511        0.08253
H          2.14280        2.50961        0.14002
C         -0.00000        2.61678        0.14333
C         -1.21235        1.95511        0.08253
H         -2.14280        2.50961        0.14003
C         -1.20192        0.57076       -0.05416
I         -3.10414       -0.36963       -0.11252
N         -0.00000        4.07407        0.30506
H         -0.83090        4.50224       -0.12667
H          0.83090        4.50224       -0.12667
I          3.10414       -0.36963       -0.11252
H         -0.00000        4.33975        1.30084
