35
id_1658_ca.log	Energy: -422986.5165836
C         -4.92424        0.31288       -0.93174
H         -5.49033       -0.60184       -1.13670
H         -4.83156        0.85508       -1.87817
H         -5.50608        0.92606       -0.23940
C         -3.56821       -0.01247       -0.36428
C         -3.20768        0.38325        0.92507
H         -3.91743        0.94051        1.53046
C         -1.95110        0.07544        1.44358
H         -1.68258        0.39307        2.44801
C         -1.03024       -0.64108        0.68033
C         -1.38618       -1.04633       -0.61073
H         -0.67663       -1.61345       -1.21018
C         -2.63702       -0.73119       -1.12548
H         -2.90336       -1.05017       -2.12998
C          0.32959       -0.97484        1.22424
H          0.59806       -2.01200        1.00854
H          0.39807       -0.80193        2.30056
N          1.41261       -0.13148        0.59423
C          2.77637       -0.70946        0.87112
H          3.46976        0.11315        1.04892
H          2.70991       -1.31652        1.77484
C          3.22105       -1.52014       -0.32354
H          2.50672       -2.32573       -0.53019
H          4.19838       -1.96370       -0.10748
O          3.29385       -0.62096       -1.42668
H          3.25406       -1.13531       -2.24804
C          1.30523        1.31824        0.95099
H          0.25142        1.58675        0.85847
H          1.62676        1.43264        1.98866
C          2.13988        2.15292       -0.01295
H          3.21199        2.02739        0.16999
H          1.89297        3.20334        0.15965
O          1.81865        1.82981       -1.35651
H          2.42462        1.11654       -1.63395
H          1.27219       -0.16764       -0.42776
