27
id_1403_cb.log	Energy: -302916.8571979
C          3.61247        0.32214       -0.51457
H          4.59406        0.58743       -0.89530
C          2.98264        1.13558        0.42462
H          3.47086        2.03879        0.77819
C          1.72325        0.78997        0.91384
H          1.23168        1.42450        1.64785
C          1.07941       -0.36846        0.47365
C          1.72061       -1.17767       -0.46969
H          1.22915       -2.08392       -0.81556
C          2.97767       -0.83712       -0.96151
H          3.46521       -1.47751       -1.69051
C         -0.29322       -0.73224        0.98694
H         -0.48380       -0.18902        1.93091
H         -0.32788       -1.80339        1.21522
N         -1.34831       -0.44803        0.01699
C         -1.50359        0.99079       -0.22415
H         -1.49890        1.54090        0.73541
H         -0.68546        1.38021       -0.83576
C         -2.87759        1.10905       -0.89477
H         -3.36753        2.04829       -0.62898
H         -2.77793        1.08363       -1.98279
C         -3.65419       -0.13288       -0.38784
H         -3.91899       -0.78742       -1.22211
H         -4.57656        0.13014        0.13455
C         -2.66146       -0.83011        0.54658
H         -2.76895       -1.91830        0.57298
H         -2.78278       -0.45247        1.57840
