34
id_1047_cb.log	Energy: -282025.8908452
C          5.59133       -1.25448       -0.30149
H          5.25017       -2.27812       -0.11165
H          6.60241       -1.15696        0.10564
H          5.65226       -1.12088       -1.38719
C          4.63499       -0.23977        0.31742
H          5.00840        0.77690        0.13900
H          4.60823       -0.37334        1.40662
C          3.21700       -0.35731       -0.23672
H          2.84191       -1.37488       -0.05786
H          3.24273       -0.22515       -1.32764
C          2.24772        0.65309        0.37165
H          2.62466        1.67009        0.19425
H          2.22168        0.51932        1.46239
C          0.83003        0.53598       -0.18387
H          0.46602       -0.48640       -0.01806
H          0.85216        0.68469       -1.27326
C         -0.13573        1.54138        0.44216
H          0.29534        2.54731        0.35332
H         -0.22194        1.33511        1.51826
C         -1.53082        1.53895       -0.18533
H         -1.45125        1.80117       -1.24961
H         -2.13597        2.32652        0.28284
C         -2.27057        0.20810       -0.05198
H         -2.26199       -0.09897        1.00333
H         -1.73974       -0.57541       -0.60944
C         -3.70986        0.28493       -0.55794
H         -3.70852        0.64626       -1.59536
H         -4.26588        1.02720        0.03260
C         -4.44969       -1.05049       -0.50176
H         -3.91922       -1.78471       -1.11893
H         -5.44435       -0.93124       -0.94359
N         -4.61838       -1.62855        0.83662
H         -5.04274       -0.91395        1.42932
H         -3.69205       -1.77699        1.23587
