20
id_153_cb.log	Energy: -229712.2689945
C          2.52305       -1.43198        0.00571
H          2.41532       -2.42450       -0.44018
H          2.87998       -1.56894        1.03293
H          3.29960       -0.88837       -0.53989
C          1.21516       -0.68205       -0.01074
C         -0.00001       -1.37257       -0.02097
H         -0.00002       -2.46014       -0.04308
C         -1.21517       -0.68203       -0.01074
C         -1.20687        0.71230        0.00380
H         -2.14640        1.26151        0.00125
C          0.00001        1.42345        0.01302
C          1.20689        0.71228        0.00380
H          2.14642        1.26147        0.00125
N          0.00002        2.81904        0.08764
H          0.83372        3.24128       -0.30807
H         -0.83366        3.24129       -0.30808
C         -2.52307       -1.43194        0.00571
H         -2.87992       -1.56905        1.03294
H         -2.41539       -2.42440       -0.44033
H         -3.29966       -0.88824       -0.53974
