24
id_1168_ca.log	Energy: -348274.4299237
C          4.13534       -0.25775       -0.94443
H          3.73446       -1.14620       -1.42926
H          5.21037       -0.34386       -0.79640
H          3.88897        0.63959       -1.50996
N          3.49081       -0.14044        0.40512
H          3.74403       -0.96250        0.96861
C          2.03054       -0.02519        0.32828
C          1.27220       -1.18708        0.31927
H          1.75179       -2.15744        0.40629
C         -0.10807       -1.07730        0.19888
H         -0.72095       -1.97087        0.19173
C         -0.69730        0.18420        0.08930
C          0.08825        1.33823        0.10218
H         -0.38500        2.31033        0.02047
C          1.46851        1.23893        0.21965
H          2.09780        2.12374        0.23018
C         -2.17349        0.34880       -0.04580
O         -2.72781        1.42699       -0.13460
O         -2.82572       -0.81319       -0.06204
C         -4.25188       -0.72217       -0.19375
H         -4.61099       -1.74917       -0.19773
H         -4.51017       -0.22179       -1.12873
H         -4.67138       -0.17245        0.65072
H          3.87900        0.67936        0.88989
