25
id_1277_cb.log	Energy: -349239.0220766
C          3.58294       -0.04646       -0.01294
H          4.66159       -0.16941       -0.01580
C          3.02963        1.23289       -0.06042
H          3.68159        2.09999       -0.10487
C          1.64587        1.41714       -0.05630
H          1.24505        2.42283       -0.11954
C          0.81379        0.29636        0.00093
C          1.37927       -0.99526        0.03135
C          2.75472       -1.17120        0.02844
H          3.18231       -2.16995        0.05262
C          0.29350       -2.04252        0.04592
H          0.34169       -2.67176        0.94283
H          0.36524       -2.71627       -0.81608
C         -0.97039       -1.21690        0.01185
C         -0.65306        0.15303        0.00964
C         -1.67380        1.11832        0.01048
C         -2.99967        0.66363       -0.03303
H         -3.80127        1.39790       -0.03886
C         -3.29860       -0.69615       -0.05648
H         -4.33880       -1.00675       -0.08738
C         -2.28625       -1.65722       -0.02291
H         -2.52155       -2.71715       -0.02733
N         -1.38678        2.48663       -0.00059
H         -0.61614        2.73995        0.60964
H         -2.19987        3.05034        0.22983
