11
id_1934_cb.log	Energy: -108662.8810948
C         -1.50113       -0.05963       -0.15593
H         -1.38532       -0.06514       -1.24542
H         -2.09080        0.81996        0.12205
H         -2.06749       -0.95098        0.13189
C         -0.15407       -0.04214        0.51241
C          1.01059       -0.64359       -0.15615
H          0.85697       -1.07506       -1.14045
H          1.79951       -1.10555        0.42766
N          0.90749        0.81829       -0.02531
H          0.57829        1.18563       -0.91917
H         -0.17594       -0.06472        1.59864
