35
id_1227_cb.log	Energy: -734997.8471176
C          5.37870       -1.78432       -0.27010
H          4.82334       -2.72625       -0.27015
H          5.87412       -1.67684        0.69950
H          6.15046       -1.85911       -1.04219
C          4.48596       -0.58313       -0.55505
H          4.00722       -0.71707       -1.54062
H          5.11526        0.31015       -0.62982
N          3.49009       -0.33501        0.49476
C          2.41660       -1.33384        0.42007
H          1.90171       -1.29287       -0.55535
H          2.88693       -2.31987        0.47588
C          1.40149       -1.23672        1.54964
H          0.69073       -2.06538        1.47477
H          0.82412       -0.30804        1.52709
H          1.89890       -1.30019        2.52266
C          3.00434        1.04459        0.44234
H          2.37251        1.24064        1.31420
H          3.87462        1.70338        0.53497
C          2.25482        1.48390       -0.81407
H          2.73228        1.12030       -1.72527
H          2.19135        2.57326       -0.85513
O          0.91822        0.94095       -0.86446
C         -0.01313        1.55600       -0.13470
O          0.18439        2.58590        0.48344
C         -1.31899        0.84113       -0.15388
C         -2.42316        1.46949        0.42495
H         -2.31263        2.46000        0.85328
C         -3.65728        0.83300        0.45090
H         -4.52235        1.31390        0.89358
C         -3.76329       -0.44034       -0.10081
C         -2.67390       -1.08787       -0.67572
H         -2.78389       -2.08252       -1.09315
C         -1.44567       -0.43779       -0.70210
H         -0.58676       -0.93118       -1.14460
Cl        -5.30990       -1.25040       -0.06727
