76
id_1901_ca.log	Energy: -838402.5425002
C          6.90188       -1.25978        1.71685
H          7.24453       -2.01300        1.00009
H          6.96976       -1.68957        2.71901
H          7.56874       -0.39573        1.67546
C          5.45374       -0.88640        1.46496
H          5.14497       -0.03653        2.07272
H          4.80422       -1.72807        1.70199
N          5.20013       -0.54861        0.01457
C          6.12593        0.50834       -0.52690
H          7.14782        0.15482       -0.38674
H          5.92176        0.56330       -1.60038
C          5.87036        1.85047        0.13588
C          4.41059        2.23899       -0.08472
H          4.25809        2.43219       -1.15586
H          4.17189        3.16136        0.45400
C          3.40610        1.16452        0.32361
C          3.75030       -0.20595       -0.30365
C          2.82533       -1.37531        0.09778
C          3.34224       -2.72216       -0.43473
H          4.26443       -3.04843        0.05856
H          3.52875       -2.67318       -1.51306
H          2.59260       -3.49718       -0.25589
C          1.40147       -1.14657       -0.39705
C          1.15798       -1.10328       -1.77362
H          1.98954       -1.22129       -2.46426
C         -0.12475       -0.90300       -2.28315
H         -0.29094       -0.85923       -3.35620
C         -1.17658       -0.76604       -1.38968
C         -0.95044       -0.81880       -0.00835
C          0.33242       -0.99740        0.51537
C          0.55784       -1.00029        2.00942
H          1.27473       -0.22547        2.30564
H          0.95463       -1.96000        2.35802
H         -0.37435       -0.80790        2.54350
C         -2.26503       -0.64451        0.72736
H         -2.35190       -1.27760        1.61431
H         -2.38928        0.39883        1.05586
C         -3.29405       -1.01122       -0.36705
C         -2.63294       -0.45839       -1.65031
C         -2.81192        1.07009       -1.76083
H         -2.04293        1.57709       -1.16043
H         -2.62681        1.38524       -2.79461
C         -4.16181        1.54828       -1.31318
H         -4.43170        2.56741       -1.59100
C         -5.03851        0.82538       -0.60899
C         -4.76879       -0.60820       -0.16377
C         -5.15204       -0.76841        1.32684
H         -5.07704       -1.82888        1.59871
H         -4.42058       -0.23476        1.94470
C         -6.53939       -0.22346        1.66928
H         -6.71996       -0.31754        2.74561
H         -7.32431       -0.79222        1.15666
C         -6.65317        1.24624        1.26381
C         -6.38927        1.39725       -0.23456
H         -7.18808        0.87239       -0.77433
H         -6.44084        2.45440       -0.51575
O         -5.74625        2.05929        2.01340
H         -4.86650        1.95596        1.61190
C         -5.63785       -1.55217       -1.01943
H         -5.53631       -2.58324       -0.66222
H         -5.32169       -1.51938       -2.06767
H         -6.69856       -1.28737       -0.98422
O          2.15467        1.62989       -0.15493
H          1.44675        1.09272        0.23486
C          6.81590        2.89214       -0.45460
H          7.86128        2.61888       -0.28174
H          6.63708        3.86997        0.00181
H          6.65808        2.98604       -1.53470
H          6.07500        1.76645        1.21048
H          3.37504        1.06124        1.41678
H          3.73546       -0.09125       -1.39403
H          2.79996       -1.42177        1.18937
H         -3.26980       -2.10758       -0.44226
H         -3.02242       -0.94006       -2.55270
H         -7.65090        1.62549        1.50506
H          5.41824       -1.40171       -0.51640
