24
id_1342_ca.log	Energy: -207602.9205467
C         -1.85594        1.45295       -0.10468
H         -1.76866        2.49797        0.20347
H         -2.75350        1.03992        0.35918
H         -1.96998        1.42801       -1.19403
C         -0.59131        0.72495        0.31865
C          0.66770        1.45888       -0.13563
H          0.62334        1.58405       -1.22636
H          0.63819        2.45903        0.30643
C          1.94619        0.72557        0.26015
H          2.82044        1.26264       -0.11800
H          2.02526        0.69536        1.35385
C          1.91948       -0.69838       -0.28662
H          2.78377       -1.27437        0.05568
H          1.94932       -0.68217       -1.38327
C          0.66651       -1.42722        0.16363
H          0.60911       -1.50972        1.25309
H          0.59472       -2.42359       -0.27457
N         -0.57075       -0.68058       -0.25654
C         -1.79049       -1.46249        0.08880
H         -1.64743       -2.48835       -0.24984
H         -2.65329       -1.02707       -0.41061
H         -1.91679       -1.43483        1.17216
H         -0.57169        0.57354        1.40378
H         -0.54030       -0.58194       -1.28100
