27
id_1086_ca.log	Energy: -279302.2810037
C          3.41224        1.54596        0.44239
H          4.06342        1.20498        1.25412
H          2.67247        2.23045        0.87110
H          4.02314        2.11118       -0.26712
C          2.72618        0.36412       -0.23500
H          3.47531       -0.30295       -0.67870
H          2.10709        0.73663       -1.06132
C          1.87436       -0.42900        0.75524
H          1.10417        0.21512        1.19696
H          2.50640       -0.77043        1.58318
C          1.23466       -1.67614        0.17586
H          0.67909       -2.23764        0.92840
H          1.97212       -2.33275       -0.29003
N          0.23455       -1.35363       -0.91572
H          0.71967       -0.90442       -1.70388
C         -0.88283       -0.50587       -0.47837
C         -0.92775        0.82026       -0.88294
H         -0.15890        1.22023       -1.53804
C         -1.98043        1.61616       -0.43549
H         -2.03304        2.65483       -0.74366
C         -2.95790        1.07988        0.39938
H         -3.77607        1.70358        0.74427
C         -2.89124       -0.25685        0.79118
H         -3.65538       -0.67624        1.43686
C         -1.84505       -1.06322        0.35321
H         -1.77968       -2.10742        0.64589
H         -0.13502       -2.24155       -1.28071
