13
id_1703_cb.log	Energy: -1803908.5015332
C         -1.54661        1.81666        0.00457
H         -1.89140        2.84593        0.01231
C         -2.45831        0.77948       -0.00109
H         -3.52794        0.95927        0.00077
C         -1.97104       -0.54132       -0.00747
N         -0.65635       -0.81893       -0.00535
C          0.17433        0.20622       -0.00198
C         -0.17478        1.54464        0.00214
H          0.57114        2.32838        0.00696
Br         2.03730       -0.22939        0.00123
N         -2.82862       -1.61043       -0.07187
H         -2.43503       -2.49187        0.23606
H         -3.76915       -1.44168        0.26431
