15
id_1448_cb.log	Energy: -225197.5687646
C          2.45163       -0.94834        0.00411
H          2.51489       -1.59775        0.88264
H          3.29414       -0.25457        0.01363
H          2.52682       -1.58737       -0.88114
C          1.14254       -0.21750       -0.00070
C          1.08085        1.17565        0.00032
H          1.97636        1.78450        0.00458
C         -0.18618        1.74014        0.00397
H         -0.30921        2.82070        0.01186
N         -1.30919        1.02232        0.00071
C         -1.13839       -0.31223       -0.00630
N          0.03356       -0.96605       -0.00391
N         -2.26929       -1.07506       -0.06672
H         -2.16731       -2.03952        0.22149
H         -3.12402       -0.62076        0.22797
