34
id_1641_cb.log	Energy: -422696.1823612
C          3.70460        0.48576        1.62027
H          4.66654        0.92578        1.90239
H          3.76031       -0.59077        1.80715
H          2.93129        0.90893        2.27347
C          3.38025        0.79417        0.15846
H          4.13499        0.31380       -0.47739
C          3.40791        2.29612       -0.09292
H          2.64877        2.79659        0.52056
H          3.20409        2.52289       -1.14331
H          4.38361        2.71446        0.17093
N          2.07646        0.26652       -0.27449
H          1.35691        0.71584        0.29683
C          1.94044       -1.18073       -0.11954
H          2.82821       -1.65162       -0.55694
H          1.85835       -1.51760        0.92294
C          0.70795       -1.64226       -0.90810
C         -0.56944       -1.16337       -0.23651
C         -0.99079       -1.77486        0.95247
H         -0.42424       -2.60811        1.36048
C         -2.13219       -1.31992        1.59716
H         -2.46243       -1.79703        2.51506
C         -2.87628       -0.25426        1.08259
H         -3.76628        0.08302        1.60031
C         -2.45208        0.35081       -0.09948
C         -1.30116       -0.10420       -0.75574
H         -1.00130        0.37875       -1.68047
O         -3.09586        1.39696       -0.69912
C         -4.26926        1.88489       -0.06497
H         -4.04811        2.25636        0.94119
H         -5.03801        1.10707       -0.00642
H         -4.62787        2.70573       -0.68594
O          0.82375       -1.18687       -2.24466
H          1.23817       -0.30587       -2.15668
H          0.69895       -2.73740       -0.93454
