29
id_1599_cb.log	Energy: -592060.7119508
C         -2.75498       -1.44530        1.23426
H         -3.71216       -1.01995        1.56157
H         -1.97472       -1.07936        1.90960
H         -2.81293       -2.53269        1.35166
C         -2.47580       -1.07211       -0.22144
H         -1.47415       -1.43865       -0.48592
C         -3.48933       -1.74490       -1.14617
H         -3.45330       -2.83467       -1.04496
H         -3.29960       -1.49427       -2.19544
H         -4.50745       -1.41857       -0.90095
C         -2.50466        0.44396       -0.43831
H         -3.51795        0.81654       -0.23586
H         -2.29472        0.65901       -1.49662
C         -1.52730        1.25519        0.41713
C         -0.10015        0.75756        0.26051
C          0.54504        0.82425       -0.98015
H          0.02332        1.23605       -1.84124
C          1.85093        0.37416       -1.13783
H          2.34575        0.42803       -2.10178
C          2.51792       -0.14978       -0.03379
C          1.90877       -0.23046        1.21091
H          2.44554       -0.63915        2.06054
C          0.59811        0.22632        1.34563
H          0.11472        0.17095        2.31787
Cl         4.16583       -0.71685       -0.22154
N         -1.69541        2.67872        0.08911
H         -1.45352        2.80241       -0.89532
H         -0.99144        3.20833        0.60328
H         -1.80007        1.13807        1.47153
