64
id_1225_cb.log	Energy: -622716.6813010
C         -5.19435        0.22737        0.67681
H         -5.83827        0.98134        1.11926
C         -5.12332       -1.05096        1.23254
H         -5.71261       -1.29514        2.11150
C         -4.30320       -2.01763        0.65838
H         -4.26063       -3.01496        1.09055
C         -3.53432       -1.72890       -0.47669
C         -3.60833       -0.44344       -1.01961
H         -3.01428       -0.20170       -1.89970
C         -4.43769        0.52679       -0.45324
H         -4.49228        1.51757       -0.89603
C         -2.64208       -2.78643       -1.08356
H         -3.24851       -3.65588       -1.36393
H         -2.20192       -2.39968       -2.00928
C         -1.52893       -3.25649       -0.13552
H         -0.93528       -4.02404       -0.64510
H         -1.98094       -3.72943        0.74484
C         -0.60411       -2.13968        0.33719
H          0.15698       -2.57610        0.99072
H         -1.17934       -1.43245        0.95766
N          0.06689       -1.48899       -0.79180
H         -0.63878       -0.93336       -1.27908
C          1.15718       -0.56715       -0.41349
H          1.41615       -0.04399       -1.34118
C          2.39418       -1.36584        0.01298
H          2.15655       -1.97171        0.89770
H          2.63520       -2.07075       -0.79478
C          3.64714       -0.53996        0.32907
H          3.45402        0.07425        1.22195
C          4.04071        0.40547       -0.81256
H          4.17958       -0.18955       -1.72847
H          3.23100        1.11691       -1.01636
C          5.32865        1.17268       -0.50149
H          5.59638        1.81679       -1.34664
H          5.14982        1.83372        0.35822
C          6.48019        0.22362       -0.16742
H          6.71550       -0.38285       -1.05329
H          7.38365        0.79200        0.08053
C          6.09831       -0.70495        0.98614
H          5.94087       -0.10524        1.89345
H          6.91510       -1.40261        1.20291
C          4.81687       -1.47479        0.66339
H          4.53994       -2.12679        1.50125
H          4.99968       -2.12961       -0.20189
C          0.76771        0.48694        0.63258
H          0.62236       -0.00476        1.60594
H          1.61106        1.17989        0.76260
C         -0.47448        1.31530        0.29229
H         -1.33971        0.64077        0.18912
C         -0.31725        2.07640       -1.03083
H          0.58628        2.70334       -0.96818
H         -0.15914        1.37464       -1.85908
C         -1.53042        2.95776       -1.33786
H         -1.36418        3.51582       -2.26628
H         -2.40291        2.31198       -1.50802
C         -1.83790        3.91688       -0.18713
H         -1.00511        4.62580       -0.07707
H         -2.73270        4.50784       -0.41356
C         -2.01878        3.15301        1.12559
H         -2.90131        2.50221        1.04625
H         -2.20889        3.84946        1.95014
C         -0.79046        2.29417        1.42936
H         -0.93383        1.73760        2.36408
H          0.08021        2.95048        1.58024
