36
id_1665_ca.log	Energy: -678647.5775494
C          4.22781        1.21708       -0.90293
H          3.49362        0.93508       -1.66571
H          4.88122        0.36608       -0.68552
H          4.82723        2.05404       -1.26005
O          3.57616        1.67764        0.27528
C          2.68604        0.83138        0.86093
C          1.93071        1.36448        1.91388
H          2.10564        2.39410        2.20912
C          0.97625        0.58437        2.54819
H          0.39495        1.00588        3.36182
C          0.74356       -0.72775        2.13093
H         -0.02872       -1.33085        2.59933
C          1.49882       -1.25534        1.08711
C          2.48956       -0.48974        0.46065
H          3.06471       -0.92442       -0.35103
C          1.16629       -2.61038        0.53699
H          0.52070       -3.17945        1.20605
H          2.04325       -3.19886        0.26555
N          0.37590       -2.45944       -0.77252
H          1.01090       -2.15538       -1.52591
C         -0.73835       -1.52757       -0.65112
C         -1.89062       -1.99242       -0.03839
H         -1.95808       -3.03744        0.24723
C         -2.94470       -1.12230        0.21788
H         -3.85446       -1.47476        0.68784
C         -2.79942        0.21001       -0.13211
C         -1.65911        0.71259       -0.73501
H         -1.57052        1.75819       -1.00381
C         -0.63111       -0.17580       -0.99760
N          0.55227        0.37245       -1.66911
O          0.78732        1.55231       -1.52762
O          1.23429       -0.39107       -2.33935
N         -3.90271        1.14049        0.14256
O         -3.75716        2.30394       -0.18371
O         -4.89773        0.69330        0.68156
H          0.01385       -3.38743       -1.03716
