26
id_1413_cb.log	Energy: -231959.6105333
C          3.72370        0.09413       -0.13659
H          3.80899       -0.02552       -1.22221
H          4.53753       -0.47060        0.32827
H          3.87507        1.15430        0.09394
C          2.36000       -0.38004        0.35591
H          2.30138       -0.26991        1.44665
H          2.24543       -1.45030        0.14410
C          1.21197        0.39501       -0.28985
H          1.22829        0.23878       -1.37729
H          1.36987        1.46766       -0.11683
C         -0.14985       -0.02330        0.24542
C         -0.49930       -1.49761       -0.01305
H         -0.03382       -1.82986       -0.94771
H         -0.12496       -2.14062        0.78712
C         -2.04192       -1.52005       -0.12707
H         -2.51080       -2.17444        0.61103
H         -2.35048       -1.86257       -1.11807
C         -2.44269       -0.05781        0.08582
H         -2.63188        0.13141        1.15870
H         -3.33881        0.23909       -0.46705
N         -1.27520        0.70350       -0.36507
C         -1.35300        2.08183        0.09100
H         -2.25780        2.55146       -0.30563
H         -0.49459        2.65836       -0.26270
H         -1.38624        2.14986        1.19334
H         -0.16422        0.15543        1.34035
