25
id_1207_ca.log	Energy: -406465.6677423
C          4.99533        0.16432        0.00001
H          6.07195        0.30689        0.00002
C          4.14409        1.27490       -0.00004
H          4.56195        2.27743       -0.00007
C          2.76422        1.10624       -0.00005
H          2.10325        1.96606       -0.00009
C          2.22999       -0.18944       -0.00002
C          3.07739       -1.29968        0.00003
H          2.64168       -2.29499        0.00005
C          4.46017       -1.12295        0.00004
H          5.11587       -1.98843        0.00008
N          0.83522       -0.48743       -0.00003
N          0.08288        0.50626        0.00003
C         -1.30686        0.22205        0.00002
C         -1.85893       -1.06878       -0.00002
H         -1.20915       -1.93720       -0.00004
C         -3.23381       -1.23268       -0.00003
H         -3.67895       -2.22315       -0.00006
C         -4.07088       -0.10828       -0.00000
C         -3.53196        1.17871        0.00003
H         -4.19114        2.04251        0.00005
C         -2.15043        1.33556        0.00005
H         -1.71284        2.32994        0.00007
O         -5.41731       -0.33500       -0.00002
H         -5.90080        0.50918        0.00001
