13
id_1444_ca.log	Energy: -200817.9886752
C         -1.83603       -0.01697       -0.00001
H         -2.91661       -0.03331       -0.00002
C         -1.07442       -1.19904        0.00000
H         -1.57487       -2.16290        0.00001
N          0.24649       -1.23650        0.00001
C          0.89680       -0.05990        0.00000
N          0.21592        1.11552        0.00000
C         -1.13740        1.15539        0.00000
H         -1.58080        2.14301        0.00000
N          2.22024       -0.03960        0.00000
H          2.74351        0.82830        0.00001
H          2.71941       -0.92073       -0.00005
H          0.73720        1.99284        0.00000
