20
id_1846_cb.log	Energy: -735995.6226025
C         -2.29661        1.80787       -0.36161
H         -2.64801        2.79717       -0.63503
C         -3.17472        0.73368       -0.41126
H         -4.20356        0.88859       -0.72423
C         -2.76529       -0.56569       -0.06061
C         -1.43868       -0.75931        0.34717
H         -1.09066       -1.74698        0.63426
C         -0.58910        0.34176        0.38897
C         -0.97331        1.63350        0.03885
H         -0.27725        2.46300        0.08808
S          1.08657        0.07051        0.85478
O          1.68771        1.30616        1.35086
O          1.22016       -1.17230        1.61116
C          1.91199       -0.25451       -0.76579
F          1.76873        0.79975       -1.55320
F          3.19753       -0.47735       -0.54398
F          1.36427       -1.31696       -1.33447
N         -3.63327       -1.63563       -0.17207
H         -3.40089       -2.43399        0.40813
H         -4.61508       -1.39013       -0.10870
