19
id_1012_ca.log	Energy: -520533.1746526
C          1.30833       -1.53744       -0.01504
H          2.01775       -2.35722       -0.02625
C         -0.05913       -1.81556       -0.02416
H         -0.42492       -2.83591       -0.06533
C         -0.95448       -0.76313       -0.01548
C         -0.50785        0.55832        0.01063
C          0.84299        0.84250        0.01409
H          1.18506        1.87136        0.05817
C          1.75246       -0.21788       -0.00346
C          3.20799        0.12258        0.00537
O          3.62421        1.26356        0.02035
O          3.99619       -0.95086       -0.00598
H          4.92983       -0.66123       -0.00125
N         -1.44354        1.67826        0.14591
O         -2.43893        1.50014        0.82622
O         -1.15054        2.72502       -0.40094
N         -2.38183       -1.08726       -0.14419
O         -2.81671       -1.97913        0.55878
O         -3.02323       -0.47002       -0.97456
