20
id_1212_cb.log	Energy: -313009.9237353
C          0.22116        2.10878       -0.23938
H          1.03245        2.02879        0.49490
H         -0.31289        3.04349       -0.04813
H          0.68877        2.17780       -1.22832
C         -0.71425        0.93070       -0.15081
C         -2.04378        1.11089        0.24145
H         -2.39361        2.11521        0.47044
C         -2.92350        0.03153        0.34404
H         -3.95255        0.19715        0.65073
C         -2.47332       -1.25366        0.05085
H         -3.14620       -2.10329        0.12612
C         -1.14800       -1.44405       -0.34460
H         -0.79217       -2.44570       -0.57642
C         -0.26126       -0.36971       -0.45149
C          1.16594       -0.59529       -0.87459
H          1.42645        0.03345       -1.73250
H          1.29611       -1.63766       -1.19172
C          2.21183       -0.35050        0.22793
O          3.36376        0.00678       -0.15060
O          1.87932       -0.55945        1.42742
