11
id_1576_ca.log	Energy: -147317.6340775
C         -0.54626        0.70145       -0.28640
H         -0.51611        0.71095       -1.37555
H         -1.01839        1.61117        0.08209
C          0.83344        0.52898        0.29375
H          0.80946        0.48673        1.38614
H          1.48097        1.34384       -0.03486
F          1.34520       -0.67631       -0.17499
N         -1.39687       -0.45831        0.11766
H         -0.94769       -1.34096       -0.15480
H         -2.31918       -0.42049       -0.33048
H         -1.54094       -0.47888        1.13461
