30
id_1240_ca.log	Energy: -303960.5933080
C          1.06614       -1.37800        1.33326
H          1.71463       -1.39618        2.21458
H          1.27327       -2.25706        0.71610
H          0.03011       -1.44237        1.67464
C          1.24176       -0.08623        0.55197
C          0.42740       -0.05756       -0.74489
H          0.72138        0.80340       -1.35470
H          0.63049       -0.96539       -1.32233
C         -1.04985        0.03103       -0.43846
C         -1.60456        1.23856       -0.00240
H         -0.96669        2.11481        0.09159
C         -2.96001        1.32735        0.30317
H         -3.37766        2.27237        0.63701
C         -3.77981        0.20614        0.17608
H         -4.83740        0.27486        0.41134
C         -3.23583       -1.00114       -0.25678
H         -3.86793       -1.87790       -0.35985
C         -1.87779       -1.08695       -0.56061
H         -1.45343       -2.02930       -0.89836
N          2.71961        0.14498        0.27386
C          3.29588       -0.76119       -0.76153
H          2.89985       -0.47361       -1.73506
H          3.03545       -1.79251       -0.52767
H          4.37806       -0.63579       -0.74692
C          3.02820        1.56814       -0.04750
H          2.55344        1.82891       -0.99282
H          4.10999        1.66796       -0.13416
H          2.65158        2.19626        0.75915
H          0.95666        0.76227        1.18118
H          3.20176       -0.06649        1.15546
