21
id_1348_ca.log	Energy: -182948.9128557
C         -2.48411       -0.02410        0.08368
H         -2.56502       -0.02659        1.17646
H         -2.98283       -0.92026       -0.29846
H         -3.01833        0.85262       -0.29396
C         -1.02121        0.02196       -0.34291
C         -0.31662        1.28357        0.16361
H         -0.42030        1.33256        1.25630
H         -0.80702        2.16967       -0.25173
C          1.16604        1.27692       -0.20915
H          1.28061        1.32415       -1.29911
H          1.68142        2.14474        0.21130
C          1.85386        0.02590        0.30922
H          2.89167       -0.04914       -0.01565
H          1.80880       -0.03884        1.39881
N          1.14196       -1.18986       -0.20887
H          1.60663       -2.03411        0.14251
C         -0.30783       -1.22010        0.17514
H         -0.33484       -1.26660        1.26763
H         -0.72977       -2.13856       -0.23569
H         -0.96471        0.00702       -1.44045
H          1.21921       -1.21250       -1.23342
