33
id_1755_cb.log	Energy: -455980.7411769
C          1.18847        3.44235       -0.09122
H          0.88197        3.87276        0.86803
H          0.77989        4.06503       -0.89423
H          2.28021        3.47759       -0.15469
C          0.69135        2.01168       -0.21342
C          1.25048        1.13842        0.90841
H          0.94926        1.55758        1.87604
H          2.34452        1.13073        0.87549
C          0.70809       -0.28196        0.83713
C         -0.81240       -0.31088        0.71143
C         -1.37603       -1.72198        0.52443
H         -0.99243       -2.14658       -0.41193
H         -1.02533       -2.36711        1.33858
C         -2.90462       -1.69316        0.47294
H         -3.29393       -2.70403        0.31186
H         -3.29276       -1.34829        1.44088
C         -3.39410       -0.75094       -0.62903
H         -4.48842       -0.71249       -0.64054
H         -3.07647       -1.14215       -1.60501
C         -2.82284        0.65490       -0.43786
H         -3.19208        1.07707        0.50659
H         -3.15403        1.32127       -1.24379
C         -1.29808        0.63539       -0.39316
N         -0.77491        1.98226       -0.14757
H         -1.12758        2.58627       -0.89148
O          1.19749       -0.93043       -0.38749
N          2.47338       -1.38388       -0.34954
O          2.83920       -1.87553       -1.38995
O          3.10923       -1.27259        0.67164
H          1.04611        1.59673       -1.17376
H          1.03574       -0.89584        1.67867
H         -1.18221        0.09059        1.66647
H         -0.93101        0.23774       -1.35892
