21
id_152_ca.log	Energy: -229995.4201863
C          2.53002       -0.68976        0.01927
H          2.58489       -1.35972        0.88440
H          3.37209        0.00253        0.07099
H          2.65418       -1.30064       -0.88272
C          1.23254        0.07350       -0.00260
C          1.20732        1.46939       -0.00251
H          2.14929        2.00932        0.00371
C         -0.00000        2.16095       -0.00742
H         -0.00000        3.24630       -0.00954
C         -1.20732        1.46939       -0.00251
H         -2.14929        2.00932        0.00371
C         -1.23254        0.07350       -0.00260
C          0.00000       -0.57894       -0.01640
N          0.00000       -2.05279       -0.01704
H         -0.82544       -2.43676       -0.49531
H          0.82544       -2.43676       -0.49531
C         -2.53002       -0.68976        0.01927
H         -2.58489       -1.35972        0.88440
H         -2.65418       -1.30064       -0.88272
H         -3.37209        0.00253        0.07099
H          0.00000       -2.43571        0.93970
