23
id_1311_ca.log	Energy: -405332.3638203
C          1.36542       -1.65677        0.00001
H          1.03798       -2.69142        0.00000
C          2.69903       -1.34947        0.00001
H          3.45887       -2.12470        0.00002
C          3.08062        0.00938        0.00001
C          2.18528        1.03842        0.00000
H          2.51402        2.07383       -0.00000
C          0.79842        0.73716        0.00000
C          0.38719       -0.62532        0.00000
C         -0.99539       -0.92902       -0.00000
H         -1.32794       -1.96080       -0.00001
C         -1.89383        0.10386        0.00000
C         -1.51475        1.46380        0.00002
H         -2.27231        2.23725        0.00003
C         -0.18038        1.76716        0.00001
H          0.14682        2.80188        0.00002
N         -3.32220       -0.21718       -0.00001
O         -3.65423       -1.39173        0.00000
O         -4.11717        0.70891       -0.00002
N          4.51730        0.30767       -0.00002
H          4.69508        1.32047       -0.00003
H          4.98158       -0.09134       -0.82823
H          4.98161       -0.09135        0.82817
