40
id_1446_ca.log	Energy: -625826.7192001
C         -4.39671       -0.06962       -0.89491
H         -3.96798        0.71159       -1.52527
H         -5.04462        0.36598       -0.13586
H         -4.95047       -0.78554       -1.50660
O         -3.35960       -0.75002       -0.17008
C         -2.37567       -1.27924       -0.89946
O         -2.33672       -1.18672       -2.11538
C         -1.36694       -2.04305       -0.07748
H         -1.56989       -1.89884        0.98596
H         -1.55056       -3.09966       -0.30612
C          0.08419       -1.70376       -0.44729
H          0.13701       -1.45783       -1.51289
H          0.69866       -2.59165       -0.28960
C          0.69015       -0.52336        0.35382
C          2.02373       -0.05660       -0.26213
C          2.84852       -0.95308       -0.94976
H          2.54692       -1.98625       -1.08919
C          4.07542       -0.53717       -1.47136
H          4.69671       -1.24940       -2.00673
C          4.49990        0.77914       -1.30676
H          5.45280        1.10355       -1.71467
C          3.68940        1.67763       -0.61100
H          4.00901        2.70640       -0.47126
C          2.46541        1.26189       -0.09235
H          1.84822        1.97332        0.44942
C         -0.33902        0.61102        0.41429
C         -0.64465        1.29362       -0.77134
H         -0.09642        1.06069       -1.68186
C         -1.64800        2.25759       -0.80029
H         -1.87367        2.77060       -1.73102
C         -2.36657        2.55795        0.35964
H         -3.15247        3.30756        0.33708
C         -2.07176        1.88412        1.54149
H         -2.62621        2.10335        2.44947
C         -1.06573        0.91459        1.56765
H         -0.87001        0.39309        2.50110
C          1.02194       -1.01737        1.76773
O          0.78828       -2.13441        2.18436
O          1.62889       -0.09012        2.51636
H          1.80453       -0.46254        3.40304
