27
id_1166_ca.log	Energy: -372927.3065120
C         -3.11309       -1.08439        1.23954
H         -4.13020       -1.47346        1.20463
H         -2.98137       -0.41764        2.09052
H         -2.39284       -1.90175        1.26978
N         -2.88159       -0.29646       -0.01386
C         -3.07449       -1.14592       -1.23388
H         -2.89743       -0.52690       -2.11217
H         -2.36963       -1.97577       -1.19335
H         -4.09870       -1.51698       -1.22028
C         -1.57633        0.38860       -0.00728
C         -1.54992        1.77703       -0.01089
H         -2.47592        2.34447       -0.01800
C         -0.31978        2.42946       -0.00561
H         -0.28876        3.51319       -0.00848
C          0.86134        1.69659        0.00176
H          1.81868        2.20452        0.00384
C          0.81046        0.30086        0.00698
C         -0.41386       -0.36599        0.00433
H         -0.43521       -1.45177        0.01060
C          2.04598       -0.53412        0.01204
O          2.03891       -1.74947        0.03010
O          3.16159        0.19306       -0.00835
C          4.38802       -0.55250       -0.01081
H          5.18182        0.19135       -0.03209
H          4.45711       -1.16191        0.89194
H          4.43580       -1.19032       -0.89517
H         -3.60614        0.43183       -0.04583
