19
id_1774_ca.log	Energy: -743560.5455927
C         -3.19862        1.39459       -0.00000
H         -4.28353        1.51762       -0.00000
H         -2.78812        1.86102       -0.89761
H         -2.78812        1.86102        0.89760
S         -2.90862       -0.39152        0.00000
C         -1.14587       -0.50042       -0.00000
C         -0.58697       -1.78625        0.00000
H         -1.22849       -2.66182        0.00000
C          0.78798       -1.95325       -0.00000
H          1.22375       -2.94778        0.00000
C          1.61714       -0.83928       -0.00000
C          1.07001        0.43747       -0.00000
C         -0.30782        0.61731       -0.00000
H         -0.70028        1.62716       -0.00000
Cl         2.10965        1.83282        0.00000
N          3.06916       -1.01999       -0.00000
H          3.51596       -0.60492       -0.83116
H          3.30745       -2.02200       -0.00000
H          3.51597       -0.60493        0.83116
