75
id_1901_cb.log	Energy: -838108.1670339
C          6.90545       -1.45149        1.59998
H          7.23934       -2.16523        0.83951
H          6.97165       -1.93848        2.57720
H          7.59819       -0.60500        1.60614
C          5.46592       -1.02208        1.34671
H          5.19667       -0.24691        2.08067
H          4.81754       -1.87779        1.55279
N          5.22700       -0.60516       -0.04484
C          6.13940        0.45426       -0.48366
H          7.17162        0.10461       -0.38482
H          5.96285        0.61820       -1.55644
C          5.94606        1.78467        0.24428
C          4.49399        2.21755        0.05515
H          4.34124        2.47033       -1.00536
H          4.26919        3.11923        0.63726
C          3.48113        1.13062        0.40712
C          3.82816       -0.20078       -0.30432
C          2.84439       -1.35241        0.01578
C          3.31331       -2.68463       -0.58678
H          4.26128       -3.01531       -0.15672
H          3.44942       -2.59365       -1.67000
H          2.56339       -3.46115       -0.40509
C          1.42440       -1.06953       -0.46173
C          1.18751       -0.89723       -1.83063
H          2.02584       -0.95153       -2.52110
C         -0.09035       -0.65044       -2.33174
H         -0.24661       -0.50694       -3.39779
C         -1.15155       -0.59959       -1.43978
C         -0.93612       -0.78215       -0.06812
C          0.34330       -1.00641        0.44786
C          0.55320       -1.15086        1.93739
H          1.26294       -0.40481        2.31320
H          0.95313       -2.13704        2.19739
H         -0.38526       -1.01528        2.47829
C         -2.25854       -0.68759        0.66843
H         -2.34809       -1.40270        1.49044
H         -2.39625        0.31866        1.09347
C         -3.27457       -0.95724       -0.46576
C         -2.60819       -0.27673       -1.68278
C         -2.80247        1.25346       -1.64358
H         -2.04228        1.70592       -0.99073
H         -2.61436        1.67121       -2.63981
C         -4.15983        1.67415       -1.16018
H         -4.43622        2.71388       -1.33704
C         -5.03490        0.87813       -0.53724
C         -4.75465       -0.59043       -0.23742
C         -5.14691       -0.90494        1.22562
H         -5.06092       -1.98646        1.38994
H         -4.42736       -0.42691        1.90026
C         -6.54260       -0.41210        1.60962
H         -6.73053       -0.61697        2.66920
H         -7.31801       -0.93275        1.03513
C         -6.66809        1.09040        1.35557
C         -6.39361        1.39733       -0.11707
H         -7.18325        0.92413       -0.71497
H         -6.45288        2.47739       -0.28854
O         -5.77498        1.83018        2.19281
H         -4.89614        1.79853        1.77750
C         -5.60780       -1.45094       -1.19126
H         -5.49556       -2.51214       -0.94169
H         -5.28722       -1.30648       -2.22862
H         -6.67180       -1.20359       -1.13498
O          2.21868        1.66509        0.00728
H          1.52231        1.04646        0.27780
C          6.91400        2.83941       -0.27967
H          7.95422        2.53289       -0.12587
H          6.76511        3.79993        0.22470
H          6.76362        2.99725       -1.35454
H          6.14025        1.63119        1.31518
H          3.47723        0.96228        1.49457
H          3.76932        0.00030       -1.38518
H          2.81408       -1.46750        1.10326
H         -3.23809       -2.04103       -0.64587
H         -2.98654       -0.67076       -2.63141
H         -7.67178        1.43336        1.62508
