16
id_1727_cb.log	Energy: -306368.8115528
C          0.08681        1.16915        0.10218
H         -0.40760        2.13278        0.20624
C         -0.64487       -0.01500        0.00432
C          0.11773       -1.18144       -0.07591
H         -0.37914       -2.14619       -0.13667
N          1.44206       -1.19199       -0.08718
C          2.04012        0.01691       -0.00562
N          1.41239        1.20757        0.09983
N          3.38465        0.03714       -0.05595
H          3.86768        0.89705        0.16368
H          3.88718       -0.83522        0.03184
C         -2.12623       -0.11682        0.01503
O         -2.68491       -1.20900        0.17255
N         -2.82508        1.02477       -0.13620
H         -3.83346        0.95545       -0.19339
H         -2.39485        1.88894       -0.43561
