21
id_1781_cb.log	Energy: -253596.2256445
C         -1.85928       -1.55856       -0.05220
H         -2.32634       -2.53647       -0.10783
C         -2.61841       -0.39967       -0.19999
H         -3.68794       -0.46508       -0.37774
C         -2.01345        0.85123       -0.12829
H         -2.60348        1.75628       -0.24986
C         -0.63591        0.96530        0.09704
C          0.14121       -0.20349        0.24776
C         -0.48731       -1.44539        0.17072
H          0.11651       -2.34127        0.29127
C          1.60688       -0.06484        0.49898
H          1.86558        0.39127        1.45339
C          2.58326       -1.06857       -0.03453
H          3.43921       -1.32014        0.58206
H          2.18887       -1.88943       -0.62512
C          2.52838        0.30494       -0.64090
H          2.08167        0.39740       -1.62640
H          3.34292        0.99188       -0.43656
N         -0.03749        2.21904        0.23176
H          0.93509        2.23336       -0.06065
H         -0.56202        2.96317       -0.21638
