21
id_1587_ca.log	Energy: -518380.2109822
C         -2.24228        0.25794        1.21910
H         -1.71257        1.09036        1.68775
H         -2.14341       -0.62392        1.85967
H         -3.29896        0.52386        1.12608
C         -1.63894       -0.02065       -0.15033
C         -0.17189       -0.38069       -0.07878
C          0.26491       -1.70227        0.04904
H         -0.45476       -2.51577        0.07359
C          1.61868       -2.00920        0.14783
H          1.92755       -3.04479        0.24078
C          2.56687       -0.99139        0.12868
H          3.62445       -1.22131        0.20314
C          2.15883        0.33397        0.01666
H          2.88271        1.14163        0.00420
C          0.80289        0.62230       -0.08204
Cl         0.33312        2.30702       -0.20426
N         -2.42493       -1.12665       -0.79447
H         -2.49705       -1.95114       -0.18530
H         -2.00902       -1.42256       -1.68656
H         -1.77872        0.83644       -0.81026
H         -3.38314       -0.80572       -0.98036
