14
id_1093_cb.log	Energy: -468780.5248987
C          0.72473        1.84305        0.00454
H          0.94242        2.90665        0.01316
C          1.77310        0.93247       -0.00215
H          2.80278        1.27810       -0.00050
C          1.51494       -0.44719       -0.01011
C          0.18347       -0.88807       -0.00799
H         -0.03891       -1.95076       -0.01045
C         -0.83908        0.04941       -0.00211
C         -0.60406        1.41901        0.00368
H         -1.42608        2.12518        0.00990
Cl        -2.49720       -0.52685        0.00317
N          2.55651       -1.36491       -0.08199
H          2.32723       -2.27961        0.29198
H          3.43079       -1.02076        0.30067
