21
id_1814_ca.log	Energy: -380787.8649616
C         -2.49261       -2.21512       -0.12952
H         -2.21480       -2.79245        0.75628
H         -2.12676       -2.70688       -1.03483
H         -3.57454       -2.10551       -0.17642
O         -1.98399       -0.88159       -0.04005
C         -0.65807       -0.71527        0.00265
C          0.25618       -1.77956       -0.00050
H         -0.09948       -2.80144       -0.01783
C          1.62151       -1.54455        0.01565
H          2.31513       -2.37998        0.01947
C          2.09670       -0.24009        0.01852
C          1.23795        0.83815        0.00722
H          1.60335        1.85907        0.00509
C         -0.12950        0.59312        0.01068
N         -0.99351        1.76654        0.01855
O         -2.11333        1.67159        0.49000
O         -0.53702        2.80623       -0.43481
N          3.54169       -0.00059        0.06145
H          3.80485        0.83726       -0.47442
H          4.06241       -0.79532       -0.33350
H          3.87431        0.13365        1.02676
