21
id_11_cb.log	Energy: -266543.1662133
C          2.81127       -0.92377        1.04716
H          3.52299       -0.93391        1.87938
H          3.06250       -1.75626        0.37835
H          1.81373       -1.11621        1.45722
C          2.85542        0.40486        0.29780
H          3.88201        0.60418       -0.03441
H          2.57956        1.22231        0.97713
C          1.92654        0.43486       -0.92634
H          2.23359       -0.36000       -1.61917
H          2.06926        1.38783       -1.45175
C          0.46716        0.25711       -0.57827
C         -0.28336        1.30925       -0.03459
H          0.19090        2.28165        0.10180
C         -1.61777        1.15155        0.33168
H         -2.17294        1.99276        0.74336
C         -2.29619       -0.08879        0.17332
C         -1.52188       -1.14721       -0.37439
H         -2.00065       -2.11488       -0.51466
C         -0.18741       -0.97074       -0.73535
H          0.36404       -1.81364       -1.15227
O         -3.55845       -0.24457        0.50362
