26
id_1580_ca.log	Energy: -504630.2416620
C         -3.78798       -1.43203        0.31453
H         -4.81945       -1.40305        0.67268
H         -3.22939       -2.14241        0.92922
H         -3.79074       -1.79884       -0.71509
C         -3.17262       -0.04293        0.39488
H         -3.73667        0.68206       -0.20333
H         -3.17582        0.33755        1.42316
C         -1.74340       -0.02704       -0.08851
O         -1.13443       -1.00464       -0.46303
S         -0.98074        1.60023       -0.06878
C          0.66135        1.12396       -0.67658
H          1.14843        2.03966       -1.02004
H          0.51268        0.46043       -1.52987
C          1.46227        0.46968        0.43949
H          0.91705       -0.35059        0.91104
H          1.73049        1.20779        1.19698
N          2.74652       -0.12076       -0.06811
C          3.67586       -0.39741        1.06570
H          4.59022       -0.83162        0.66314
H          3.88899        0.54016        1.57757
H          3.18232       -1.10009        1.73812
C          2.52198       -1.35909       -0.87058
H          2.05033       -2.09626       -0.21973
H          1.88195       -1.13329       -1.72131
H          3.49018       -1.71819       -1.21763
H          3.19644        0.57459       -0.67695
