26
id_1733_ca.log	Energy: -336305.5702894
C         -4.06195       -0.03143       -0.42507
H         -4.34241       -0.91867        0.15425
H         -4.63959       -0.03976       -1.35497
H         -4.36085        0.85258        0.14992
C         -2.56231       -0.01661       -0.70228
H         -2.30023        0.86421       -1.30182
H         -2.28225       -0.89546       -1.29654
C         -1.74215       -0.00419        0.59588
H         -2.00864       -0.88219        1.19545
H         -2.02320        0.87407        1.18825
C         -0.25712        0.00636        0.33960
C          0.45842        1.20243        0.18941
N          1.77559        1.21295       -0.07411
C          2.35479        0.02634       -0.18773
N          1.79114       -1.16777       -0.06908
C          0.47326       -1.17957        0.19538
C         -0.17147       -2.52523        0.34933
H         -1.06768       -2.60932       -0.27281
H         -0.48024       -2.68086        1.38955
H          0.53078       -3.31299        0.07227
O          3.68175        0.06871       -0.45878
H          4.01363       -0.84381       -0.53442
C         -0.20981        2.53759        0.33572
H         -0.52197        2.69385        1.37485
H         -1.10717        2.60223       -0.28722
H          0.47870        3.33587        0.05442
