49
id_1354_cb.log	Energy: -546474.1241278
C          4.44079       -2.40211       -0.57306
H          5.17072       -2.89490       -1.22256
H          3.44074       -2.65168       -0.93989
H          4.54282       -2.82792        0.43144
C          4.66660       -0.89479       -0.54929
H          4.51802       -0.47744       -1.55358
H          5.71079       -0.68410       -0.28950
C          3.79452       -0.13967        0.46046
C          4.06657        1.36622        0.35526
H          3.51567        1.93766        1.10807
H          3.79843        1.75265       -0.63402
H          5.13347        1.55902        0.50770
N          2.37669       -0.52511        0.35745
C          1.56595        0.05353        1.42565
H          2.05994       -0.14841        2.38273
H          1.47670        1.15092        1.33149
C          0.17177       -0.56264        1.43092
H         -0.38775       -0.19435        2.29587
H          0.27595       -1.64699        1.55064
C         -0.58122       -0.28442        0.11286
C          0.35191       -0.77627       -1.01867
H          0.41084       -1.86838       -0.93640
H         -0.07124       -0.55915       -2.00421
C          1.77124       -0.21196       -0.93496
H          1.75646        0.87506       -1.12067
H          2.36862       -0.66722       -1.73107
C         -0.93555        1.20934        0.00140
C         -0.68775        1.97207       -1.14420
H         -0.19242        1.52993       -2.00213
C         -1.07157        3.31262       -1.21574
H         -0.86196        3.87946       -2.11803
C         -1.71595        3.91937       -0.14310
H         -2.01150        4.96254       -0.19742
C         -1.98658        3.16738        1.00003
H         -2.50184        3.62065        1.84170
C         -1.60510        1.83137        1.06561
H         -1.85036        1.25807        1.95590
C         -1.90375       -1.05995        0.02894
C         -2.38803       -1.85504        1.07052
H         -1.83145       -1.94677        1.99696
C         -3.59695       -2.54364        0.94401
H         -3.95175       -3.15473        1.76876
C         -4.34254       -2.44958       -0.22581
H         -5.28114       -2.98627       -0.32380
C         -3.87439       -1.65164       -1.27094
H         -4.44918       -1.56187       -2.18796
C         -2.67327       -0.96405       -1.13998
H         -2.33011       -0.33101       -1.95529
H          4.10443       -0.46584        1.46358
