29
id_1262_cb.log	Energy: -303666.9589536
C          2.05360        2.48991        0.02516
H          2.99368        2.41907        0.58125
H          1.25937        2.74403        0.73227
H          2.13886        3.31787       -0.68493
C          1.78025        1.19759       -0.73176
H          2.56419        1.06840       -1.48543
H          0.82986        1.28244       -1.28700
N          1.80848       -0.00000        0.11464
C          1.78024       -1.19759       -0.73177
H          0.82986       -1.28243       -1.28700
H          2.56419       -1.06841       -1.48543
C          2.05360       -2.48991        0.02516
H          2.13885       -3.31787       -0.68494
H          1.25936       -2.74403        0.73226
H          2.99367       -2.41908        0.58125
C          0.73107       -0.00000        1.12292
H          0.87336       -0.87713        1.76063
H          0.87336        0.87713        1.76064
C         -0.68873        0.00000        0.58564
C         -1.35726        1.20104        0.32276
H         -0.86246        2.14533        0.53776
C         -2.65068        1.20443       -0.19635
H         -3.15265        2.14780       -0.38977
C         -3.30058        0.00000       -0.45990
H         -4.30922        0.00000       -0.86177
C         -2.65068       -1.20442       -0.19635
H         -3.15266       -2.14779       -0.38976
C         -1.35726       -1.20104        0.32277
H         -0.86246       -2.14533        0.53777
