23
id_1030_ca.log	Energy: -183695.2732174
C         -3.85694       -0.35546        0.00000
H         -3.89120       -1.00109       -0.88440
H         -4.76038        0.26194       -0.00000
H         -3.89120       -1.00109        0.88441
C         -2.59324        0.49887       -0.00000
H         -2.59030        1.15596        0.87909
H         -2.59030        1.15596       -0.87910
C         -1.32015       -0.34374        0.00000
H         -1.31963       -1.00149       -0.88008
H         -1.31963       -1.00149        0.88009
C         -0.04908        0.50117       -0.00000
H         -0.04534        1.15669        0.88081
H         -0.04534        1.15668       -0.88082
C          1.21728       -0.35211        0.00000
H          1.22891       -1.00162       -0.88434
H          1.22891       -1.00161        0.88435
C          2.45931        0.51748       -0.00000
H          2.51514        1.14745        0.88861
H          2.51514        1.14744       -0.88862
N          3.69167       -0.33313        0.00000
H          3.71832       -0.93867       -0.82858
H          3.71832       -0.93866        0.82859
H          4.54385        0.23822        0.00000
