44
id_1266_ca.log	Energy: -544506.6032385
C          3.71629       -0.04580       -1.62261
H          4.28759        0.52801       -2.34573
C          3.81496        0.24923       -0.26217
H          4.46491        1.04976        0.07709
C          3.08642       -0.48945        0.66542
H          3.18728       -0.26665        1.72593
C          2.23774       -1.51661        0.23941
C          2.14296       -1.80727       -1.12151
H          1.48520       -2.60672       -1.45323
C          2.88403       -1.07743       -2.05023
H          2.80458       -1.31225       -3.10705
C          1.46322       -2.33061        1.24420
H          2.14045       -2.84260        1.93076
H          0.82392       -3.07265        0.76222
N          0.57074       -1.48248        2.11549
H          1.03600       -0.58484        2.30527
C         -0.81956       -1.23085        1.60488
H         -1.29174       -2.21076        1.51472
H         -1.33236       -0.66889        2.38853
C         -0.86447       -0.50544        0.26068
H         -0.41329       -1.16128       -0.49238
C         -0.11224        0.81537        0.22592
C          0.10928        1.60041        1.36084
H         -0.27093        1.29082        2.33201
C          0.82163        2.79735        1.26687
H          0.99387        3.38928        2.16050
C          1.30820        3.22912        0.03694
H          1.86697        4.15701       -0.03417
C          1.06991        2.46344       -1.10561
H          1.44330        2.79334       -2.07053
C          0.36594        1.26802       -1.00889
H          0.19163        0.66438       -1.89694
C         -2.32844       -0.33135       -0.12360
C         -3.14994        0.55762        0.57667
H         -2.73501        1.14688        1.39160
C         -4.49057        0.70057        0.23053
H         -5.11832        1.39470        0.78089
C         -5.02500       -0.04129       -0.82315
H         -6.06963        0.07356       -1.09527
C         -4.21204       -0.92722       -1.52566
H         -4.61952       -1.50641       -2.34865
C         -2.87027       -1.07205       -1.17504
H         -2.23591       -1.76423       -1.72296
H          0.47756       -1.94778        3.02575
