26
id_1209_cb.log	Energy: -279016.7412152
C          3.08415       -1.11469       -0.40677
H          3.86212       -1.80940       -0.70825
C          2.39039       -1.31176        0.78527
H          2.62508       -2.16316        1.41738
C          1.39411       -0.41554        1.17092
H          0.85532       -0.57202        2.10272
C          1.07496        0.68910        0.37599
C          1.77785        0.87461       -0.81996
H          1.54141        1.73168       -1.44707
C          2.77452       -0.01674       -1.20954
H          3.31257        0.14673       -2.13871
C         -0.03148        1.63958        0.76522
H         -0.23997        1.53774        1.83677
H          0.29753        2.67088        0.59448
C         -1.32668        1.39312       -0.02318
H         -1.12628        1.52408       -1.09516
H         -2.05868        2.16141        0.25640
C         -1.93048        0.01167        0.21561
H         -2.08366       -0.14287        1.29368
H         -1.23069       -0.76690       -0.11729
C         -3.25931       -0.17826       -0.50859
H         -3.11463       -0.00932       -1.58179
H         -3.97149        0.58173       -0.16772
N         -3.88146       -1.49524       -0.33524
H         -3.98394       -1.65500        0.66746
H         -3.20270       -2.19537       -0.63600
