37
id_107_ca.log	Energy: -390125.4992090
C         -2.90024       -1.22862        1.25255
H         -2.81277       -0.62613        2.16424
H         -2.13169       -2.00836        1.28395
H         -3.88013       -1.72078        1.26023
C         -2.76318       -0.34726       -0.00000
C         -3.90911        0.66880       -0.00001
H         -4.86593        0.13510       -0.00000
H         -3.88275        1.31021       -0.88840
H         -3.88275        1.31021        0.88839
C         -2.90024       -1.22862       -1.25254
H         -2.13168       -2.00836       -1.28394
H         -2.81277       -0.62615       -2.16423
H         -3.88013       -1.72079       -1.26022
C         -1.39237        0.33541        0.00000
C         -1.22918        1.72000        0.00000
H         -2.08626        2.38556        0.00000
C          0.04733        2.28212        0.00000
H          0.16858        3.36361        0.00000
C          1.18221        1.47695       -0.00000
C          1.07124        0.06975       -0.00000
C         -0.22722       -0.44936       -0.00000
H         -0.34662       -1.52758       -0.00000
C          2.30559       -0.84258        0.00000
C          3.15166       -0.59204        1.26128
H          3.52147        0.43418        1.31330
H          4.01618       -1.26666        1.26295
H          2.56323       -0.79396        2.16402
C          3.15166       -0.59203       -1.26128
H          2.56324       -0.79395       -2.16402
H          4.01618       -1.26666       -1.26295
H          3.52147        0.43419       -1.31329
C          1.91785       -2.32673       -0.00000
H          1.33805       -2.59943        0.88909
H          2.83236       -2.92964       -0.00000
H          1.33806       -2.59943       -0.88910
O          2.43231        2.05252       -0.00000
H          2.34025        3.01996        0.00001
