32
id_1152_cb.log	Energy: -328330.2116105
C         -3.73127       -0.65177        0.43115
H         -3.58964       -1.65413        0.84372
H         -4.66644       -0.65702       -0.13865
H         -3.86094        0.04663        1.26597
C         -2.57712       -0.22772       -0.47996
H         -2.44268       -1.02571       -1.22602
C         -2.95627        1.05497       -1.22233
H         -3.79906        0.86593       -1.89510
H         -2.12374        1.43999       -1.81690
H         -3.26648        1.83660       -0.51937
C         -1.21723       -0.11018        0.25959
C         -0.97150       -1.34549        1.13348
H          0.05012       -1.32966        1.52793
H         -1.10049       -2.26683        0.55168
H         -1.65675       -1.37718        1.98580
C         -1.16904        1.13974        1.13696
H         -1.16183        2.05451        0.53756
H         -0.28027        1.13813        1.77476
H         -2.04391        1.16482        1.79459
N         -0.18713       -0.03969       -0.82303
H         -0.32860       -0.87573       -1.39057
C          1.18147       -0.00448       -0.44917
C          1.76439        1.16804        0.05289
H          1.15739        2.06015        0.16414
C          3.11741        1.20199        0.37858
H          3.54730        2.11985        0.76884
C          3.92468        0.08178        0.18365
H          4.98145        0.11721        0.42844
C          3.35975       -1.07921       -0.34015
H          3.97434       -1.95938       -0.50494
C          2.00147       -1.12477       -0.64366
H          1.55965       -2.03774       -1.03668
