23
id_1132_ca.log	Energy: -358261.5905918
C          2.75225       -0.89608       -1.23723
H          3.80816       -1.16309       -1.21056
H          2.52976       -0.27464       -2.10348
H          2.13195       -1.79206       -1.22895
N          2.45408       -0.10346        0.00000
C          2.75224       -0.89611        1.23721
H          2.13195       -1.79209        1.22890
H          2.52976       -0.27470        2.10347
H          3.80816       -1.16313        1.21054
C          1.08667        0.43962        0.00001
C          0.91151        1.81732        0.00001
H          1.77375        2.47761        0.00002
C         -0.37970        2.34050        0.00001
H         -0.52499        3.41433        0.00002
C         -1.48097        1.49338        0.00001
H         -2.49227        1.88034        0.00001
C         -1.25303        0.12365        0.00000
C          0.01461       -0.43827        0.00000
H          0.14226       -1.51494       -0.00001
N         -2.40541       -0.78318       -0.00000
O         -3.52030       -0.29089       -0.00003
O         -2.19154       -1.98365        0.00002
H          3.09404        0.70108        0.00001
