17
id_194_cb.log	Energy: -1901808.2489959
C         -3.60422       -0.21186        0.21697
H         -4.66569       -0.33637        0.41136
C         -2.67449       -0.43460        1.23721
H         -3.01258       -0.73760        2.22404
C         -1.31362       -0.28095        0.99136
H         -0.59280       -0.46790        1.78144
C         -0.86368        0.10998       -0.27585
C         -1.79799        0.32543       -1.29211
H         -1.45484        0.62675       -2.27911
C         -3.16453        0.17511       -1.04701
H         -3.87861        0.34991       -1.84648
C          0.58186        0.37625       -0.56348
C          1.21743        1.56382        0.20055
O          0.93952        1.70001        1.41525
O          1.98119        2.29607       -0.48197
Br         1.69149       -1.19003       -0.08380
H          0.75197        0.50873       -1.63037
