29
id_112_cb.log	Energy: -512618.5299175
C          0.91809       -4.46145       -0.00000
H          1.37607       -5.44601       -0.00000
C          1.71952       -3.30272       -0.00000
H          2.80225       -3.39716       -0.00000
C          1.14965       -2.04338       -0.00000
H          1.78733       -1.16656       -0.00000
C         -0.25858       -1.87309        0.00000
C         -1.05707       -3.04647        0.00000
C         -0.45539       -4.32392       -0.00000
H         -1.10052       -5.19995        0.00000
C         -2.48735       -2.90924        0.00000
H         -3.09044       -3.81537        0.00000
C         -3.08116       -1.69104        0.00000
H         -4.16422       -1.59515        0.00000
C         -2.32712       -0.44258        0.00000
C         -0.88808       -0.55941        0.00000
N          0.00000        0.48014        0.00000
N         -0.39423        1.68652        0.00000
C          0.68249        2.61324       -0.00000
C          2.04015        2.25409       -0.00000
H          2.32395        1.20852       -0.00000
C          2.99366        3.26061       -0.00000
H          4.05083        3.01031       -0.00000
C          2.57932        4.59385       -0.00000
H          3.29053        5.41297       -0.00000
C          1.21282        4.84793       -0.00000
H          0.84571        5.87098       -0.00000
N          0.27738        3.89066        0.00000
O         -2.96866        0.65219        0.00000
