36
id_1850_ca.log	Energy: -717893.4795347
C          6.06217        0.42933        0.77235
H          7.00242        0.73541        1.22019
C          6.03284       -0.05998       -0.53560
H          6.95060       -0.13670       -1.11102
C          4.82889       -0.45012       -1.11593
H          4.78385       -0.82931       -2.13236
C          3.65708       -0.34761       -0.37141
C          3.66102        0.12932        0.93523
H          2.74106        0.19323        1.50949
C          4.87671        0.52121        1.49948
H          4.88858        0.89699        2.51828
O          2.49610       -0.78617       -1.00857
C          1.29326       -0.41725       -0.46862
C          0.48530       -1.35014        0.07103
C         -0.87276       -0.98353        0.59581
O         -1.58304       -1.82978        1.11067
C         -1.29325        0.41731        0.46853
C         -0.48529        1.35021       -0.07111
C          0.87277        0.98359       -0.59588
O          1.58307        1.82985       -1.11071
O         -0.79238        2.64078       -0.20530
H         -1.68868        2.80550        0.14834
O         -2.49608        0.78624        1.00850
C         -3.65708        0.34761        0.37141
C         -3.66106       -0.12936       -0.93522
H         -2.74113       -0.19325       -1.50952
C         -4.87677       -0.52132       -1.49940
H         -4.88867       -0.89713       -2.51818
C         -6.06220       -0.42947       -0.77221
H         -7.00246       -0.73560       -1.21998
C         -6.03282        0.05989        0.53573
H         -6.95056        0.13659        1.11119
C         -4.82886        0.45010        1.11598
H         -4.78379        0.82933        2.13240
O          0.79239       -2.64072        0.20522
H          1.68869       -2.80543       -0.14842
