32
id_1570_ca.log	Energy: -445897.2688326
C         -4.86501       -0.47791        0.00234
H         -5.94997       -0.51216        0.00337
C         -4.12795       -1.68806       -0.00075
H         -4.65629       -2.63633       -0.00218
C         -2.75534       -1.66515       -0.00202
H         -2.18714       -2.59138       -0.00445
C         -2.05655       -0.42862       -0.00032
C         -2.79531        0.79234        0.00256
C         -4.21385        0.73103        0.00396
H         -4.77465        1.66202        0.00630
C         -2.10501        2.04028        0.00390
H         -2.69414        2.95331        0.00628
C         -0.73514        2.09632        0.00220
H         -0.21554        3.05001        0.00329
C         -0.00428        0.88357       -0.00049
C         -0.64248       -0.34446       -0.00156
C          0.36072       -1.47093       -0.00390
H          0.25750       -2.11906        0.87481
H          0.25810       -2.11444       -0.88609
C          1.67478       -0.73014       -0.00222
C          1.44709        0.65851       -0.00139
C          2.50897        1.55964       -0.00565
H          2.33512        2.63109       -0.00942
C          3.81051        1.06264       -0.00892
H          4.66341        1.73454       -0.01434
C          4.00816       -0.31233       -0.00820
C          2.96578       -1.23251       -0.00499
H          3.16883       -2.29997       -0.00793
N          5.38838       -0.82117        0.01581
H          5.45665       -1.74425       -0.43205
H          6.03282       -0.18779       -0.47474
H          5.73601       -0.92263        0.97922
