33
id_1028_ca.log	Energy: -315528.3149151
C         -2.81657        2.42449        0.53074
H         -3.00754        2.16680        1.57668
H         -1.79830        2.81040        0.44106
H         -3.50546        3.22306        0.24524
C         -3.06650        1.23074       -0.36857
H         -2.86935        1.44828       -1.42103
H         -4.09720        0.88887       -0.27165
N         -2.17936        0.06631       -0.01549
C         -2.75668       -1.23533       -0.50732
H         -3.07828       -1.05168       -1.53535
H         -1.94101       -1.95909       -0.52309
C         -3.88462       -1.72520        0.37862
H         -4.22990       -2.68939       -0.00215
H         -4.73753       -1.04255        0.38801
H         -3.53438       -1.86961        1.40502
C         -0.77773        0.26876       -0.52340
H         -0.79109       -0.02459       -1.57679
H         -0.56070        1.33659       -0.46325
C          0.24107       -0.51913        0.28199
H          0.20556       -0.18549        1.32656
H          0.00304       -1.58870        0.27058
C          1.64526       -0.30707       -0.28013
H          1.67964       -0.65224       -1.32126
H          1.87535        0.76651       -0.29148
C          2.69817       -1.04970        0.53621
H          2.46776       -2.11979        0.55668
H          2.68899       -0.69395        1.57217
C          4.11238       -0.89653       -0.04063
H          4.15272       -1.27071       -1.06878
H          4.84032       -1.46111        0.54890
C          4.54002        0.50386       -0.05875
N          4.85952        1.61744       -0.06458
H         -2.13251        0.01280        1.01187
