26
id_1959_cb.log	Energy: -231964.0048548
C         -2.49618       -0.76739       -0.18264
H         -2.65513       -1.72717        0.31379
H         -2.48844       -0.93323       -1.26587
H         -3.35287       -0.12991        0.05625
C         -1.21179       -0.07027        0.26060
C         -1.24379        1.38909       -0.19500
H         -1.32070        1.40890       -1.29084
H         -2.14847        1.86126        0.20346
C          0.00000        2.14465        0.25323
H          0.00000        3.16689       -0.13990
H          0.00000        2.21968        1.34907
C          1.24379        1.38908       -0.19500
H          2.14847        1.86126        0.20346
H          1.32070        1.40890       -1.29085
C          1.21179       -0.07028        0.26060
N         -0.00000       -0.74447       -0.25506
C         -0.00000       -2.14663        0.15404
H         -0.00001       -2.26413        1.25352
H          0.87553       -2.65993       -0.24455
H         -0.87553       -2.65993       -0.24455
C          2.49618       -0.76739       -0.18264
H          2.48845       -0.93323       -1.26587
H          2.65512       -1.72718        0.31379
H          3.35287       -0.12991        0.05626
H         -1.17969       -0.07808        1.36946
H          1.17969       -0.07808        1.36946
