23
id_135_cb.log	Energy: -207312.6511680
C          2.30506        0.30082        0.22268
H          3.31536        0.51965       -0.14078
H          2.35963        0.26384        1.31974
C          1.83269       -1.05693       -0.29999
H          1.85790       -1.04732       -1.39854
H          2.51337       -1.85070        0.02762
C          0.40631       -1.35783        0.16489
H          0.06902       -2.32245       -0.23440
H          0.39641       -1.44652        1.26183
C         -0.57596       -0.25468       -0.24321
H         -0.60325       -0.21093       -1.34482
C         -0.08843        1.10307        0.27270
H         -0.11684        1.08832        1.37323
H         -0.76720        1.90003       -0.05347
C          1.33715        1.41036       -0.19194
H          1.66650        2.37494        0.21031
H          1.34483        1.50196       -1.28706
C         -1.98635       -0.58555        0.24789
H         -1.97727       -0.63556        1.34406
H         -2.25835       -1.58636       -0.10755
N         -3.05083        0.34022       -0.15209
H         -2.82771        1.26195        0.22170
H         -2.99941        0.45220       -1.16529
