21
id_1144_ca.log	Energy: -229989.4712981
C          2.45262       -0.81925        0.96705
H          3.24541       -0.74246        1.71481
H          2.68722       -1.65656        0.30259
H          1.51303       -1.02645        1.48494
C          2.39392        0.48144        0.19813
H          3.34557        0.71829       -0.27884
H          2.08476        1.32272        0.82046
N          1.38778        0.40110       -0.92932
H          1.66644       -0.36218       -1.56071
C          0.00192        0.19354       -0.49095
C         -0.54682       -1.07787       -0.57198
H          0.03547       -1.90091       -0.97667
C         -1.85334       -1.26716       -0.12722
H         -2.29980       -2.25402       -0.18513
C         -2.57986       -0.19499        0.38611
H         -3.59784       -0.34701        0.72952
C         -2.00574        1.07376        0.45747
H         -2.57362        1.90922        0.85270
C         -0.70093        1.27764        0.01770
H         -0.23859        2.25963        0.06103
H          1.44682        1.26946       -1.47722
