25
id_1860_ca.log	Energy: -325608.7274868
C         -4.05612       -0.00027        0.00131
H         -5.14167       -0.00005        0.00186
C         -3.35547        1.14568       -0.37094
H         -3.89306        2.04061       -0.66878
C         -1.96363        1.14617       -0.37117
H         -1.42572        2.03724       -0.68229
C         -1.25023       -0.00074        0.00017
C         -1.96357       -1.14757        0.37162
H         -1.42558       -2.03891        0.68190
C         -3.35547       -1.14651        0.37269
H         -3.89319       -2.04125        0.67087
C          0.23453       -0.00021        0.00054
C          0.94986       -1.14699       -0.37089
H          0.41660       -2.03991       -0.68130
C          2.33935       -1.15293       -0.37583
H          2.89250       -2.03866       -0.67338
C          3.00918        0.00370       -0.00510
C          2.33786        1.15694        0.36810
H          2.88888        2.04657        0.65840
C          0.94732        1.14744        0.36885
H          0.41354        2.04094        0.67656
N          4.47931       -0.00273        0.00681
H          4.85998        0.95248        0.00412
H          4.86148       -0.49104       -0.81388
H          4.84946       -0.47704        0.84215
