17
id_1115_cb.log	Energy: -3431937.8736188
C         -0.00001        3.78996        0.01917
H         -0.00016        4.16323        1.04920
H         -0.88723        4.19041       -0.47815
H          0.88736        4.19041       -0.47788
C          0.00000        2.28447       -0.00682
C          1.19403        1.56354       -0.00705
H          2.14442        2.08840       -0.01183
C          1.18350        0.17684       -0.00063
C          0.00000       -0.57934        0.00432
C         -1.18350        0.17684       -0.00063
C         -1.19403        1.56354       -0.00705
H         -2.14442        2.08840       -0.01183
Br        -2.84506       -0.74365       -0.00452
N         -0.00000       -1.96148       -0.05577
H         -0.83833       -2.39493        0.31468
H          0.83833       -2.39493        0.31467
Br         2.84506       -0.74365       -0.00452
