35
id_1758_cb.log	Energy: -587792.8441662
C          5.83587       -0.20308       -0.00701
H          6.91219       -0.34178       -0.01080
C          5.28961        1.09533        0.04211
H          5.95269        1.95447        0.07516
C          3.92687        1.29617        0.04851
H          3.53055        2.29954        0.08624
C          3.02891        0.19691        0.00487
C          3.58855       -1.11269       -0.04630
C          4.99324       -1.28696       -0.05063
H          5.38660       -2.29907       -0.08963
C          2.73368       -2.25381       -0.09371
H          3.18666       -3.24039       -0.13158
C          1.38014       -2.11746       -0.09231
H          0.70738       -2.96723       -0.12807
C          0.82410       -0.81566       -0.04067
C          1.58986        0.33864        0.00854
C          0.87447        1.62847        0.06989
O          1.43786        2.73270        0.12242
C         -0.56806        1.53894        0.07741
H         -1.11992        2.46758        0.15076
C         -1.22515        0.35560        0.00984
O         -0.53639       -0.80851       -0.04860
C         -2.67529        0.15588       -0.00219
C         -3.22789       -1.11459        0.22104
H         -2.57611       -1.96161        0.40677
C         -4.59879       -1.30502        0.22371
H         -5.01245       -2.29292        0.40538
C         -5.47193       -0.22707       -0.00453
C         -4.91909        1.04665       -0.23333
H         -5.58235        1.88655       -0.41909
C         -3.54876        1.23030       -0.23263
H         -3.15455        2.22282       -0.42779
N         -6.83523       -0.42277       -0.06491
H         -7.39976        0.40106        0.10804
H         -7.17807       -1.24239        0.42298
