35
id_1665_cb.log	Energy: -678378.1468709
C         -2.53700        0.69262       -2.99589
H         -1.48607        0.44733       -2.80913
H         -2.75048        1.69881       -2.62016
H         -2.73590        0.65378       -4.06671
O         -3.39932       -0.26842       -2.40299
C         -3.33160       -0.41996       -1.04777
C         -4.18390       -1.38481       -0.49913
H         -4.83404       -1.94730       -1.16149
C         -4.17414       -1.60751        0.87003
H         -4.83017       -2.36167        1.29372
C         -3.32093       -0.88018        1.70168
H         -3.30632       -1.06476        2.77218
C         -2.48035        0.08499        1.15317
C         -2.47979        0.31765       -0.22522
H         -1.81459        1.06655       -0.64074
C         -1.58763        0.89757        2.07416
H         -1.32863        0.30439        2.95713
H         -2.12991        1.77633        2.43119
N         -0.38058        1.40507        1.44221
H         -0.34485        2.38709        1.20396
C          0.60081        0.62358        0.97263
C          0.56238       -0.78547        1.20660
H         -0.27671       -1.20407        1.74740
C          1.55280       -1.62199        0.76925
H          1.49757       -2.68587        0.96608
C          2.64388       -1.09386        0.05977
C          2.73797        0.25304       -0.20664
H          3.57793        0.65548       -0.75739
C          1.73281        1.10360        0.23944
N          1.89667        2.49825       -0.09180
O          2.88706        2.84404       -0.71983
O          1.03517        3.30111        0.26341
N          3.68849       -1.97486       -0.40606
O          4.62939       -1.49434       -1.02429
O          3.58748       -3.17000       -0.16116
