27
id_1218_ca.log	Energy: -279311.4203157
C         -1.83037        1.55326       -0.08591
H         -1.63733        1.73849       -1.14788
H         -1.41167        2.39368        0.47562
H         -2.91388        1.54827        0.06808
C         -1.23981        0.23059        0.41353
C         -1.57328        0.08773        1.90729
H         -2.65620        0.14662        2.05949
H         -1.10064        0.89705        2.47148
H         -1.22173       -0.86622        2.31095
C         -1.92795       -0.94255       -0.29765
H         -3.01193       -0.87918       -0.18823
H         -1.58584       -1.90490        0.08494
N         -1.64499       -0.94938       -1.76843
H         -0.63328       -0.97659       -1.94989
H         -2.02461       -0.11581       -2.23176
C          0.27644        0.14162        0.20759
C          1.01081        1.16526       -0.39864
H          0.51471        2.06660       -0.74180
C          2.39203        1.05471       -0.56755
H          2.93890        1.86626       -1.03789
C          3.06404       -0.08504       -0.13932
H          4.13805       -0.17133       -0.27170
C          2.34393       -1.11753        0.46097
H          2.85469       -2.01380        0.79974
C          0.96806       -1.00370        0.63111
H          0.42822       -1.81874        1.10635
H         -2.06606       -1.77079       -2.21698
