12
id_1934_ca.log	Energy: -108950.5947975
C          1.55381        0.00301       -0.14331
H          1.45994        0.03124       -1.23270
H          2.07309       -0.91126        0.15236
H          2.14867        0.86201        0.17653
C          0.20650        0.08155        0.50966
C         -0.92703        0.76198       -0.14231
H         -0.78301        1.18036       -1.13114
H         -1.72305        1.17756        0.46124
N         -0.87859       -0.71795       -0.12150
H         -0.65990       -1.19299       -0.99826
H          0.16959        0.00493        1.59014
H         -1.53483       -1.20544        0.48806
