24
id_1131_cb.log	Energy: -486257.4755040
C          3.19283       -0.03876        0.80685
H          2.62816        0.67886        1.40518
H          3.86038        0.49879        0.12845
H          3.79134       -0.64423        1.49173
N          2.29191       -0.93751        0.09253
C          2.82073       -2.28031       -0.13023
H          2.60455       -2.94375        0.71515
H          3.90141       -2.19878       -0.24921
H          2.40866       -2.70849       -1.04478
C          0.97337       -0.69909       -0.04258
C          0.04978       -1.77922       -0.17593
H          0.42385       -2.79180       -0.24578
C         -1.30687       -1.58164       -0.14284
H         -1.98202       -2.42653       -0.20729
C         -1.82028       -0.28571        0.00894
C         -0.98106        0.81008        0.06034
H         -1.37445        1.81845        0.09839
C          0.38743        0.60419       -0.00901
N          1.17150        1.80730       -0.22520
O          2.13469        1.74077       -0.97514
O          0.79956        2.84670        0.30261
N         -3.24502       -0.08105        0.06778
O         -3.97647       -1.05786       -0.03890
O         -3.66855        1.05776        0.22509
