29
id_1041_ca.log	Energy: -233010.6434503
C          4.84783        0.33629       -0.12679
H          5.75988       -0.19732        0.15764
H          4.85389        1.30656        0.38188
H          4.89218        0.52608       -1.20488
C          3.59633       -0.45817        0.23332
H          3.58366       -0.66039        1.31206
H          3.62257       -1.43552       -0.26546
C          2.31108        0.26839       -0.15571
H          2.32422        0.47442       -1.23519
H          2.28109        1.24577        0.34590
C          1.05005       -0.51800        0.19211
H          1.03131       -0.72011        1.27183
H          1.08040       -1.49570       -0.30774
C         -0.23183        0.20980       -0.20742
H         -0.22016        0.40429       -1.28826
H         -0.24538        1.18938        0.29008
C         -1.48312       -0.59354        0.14547
H         -1.55922       -0.72687        1.23333
H         -1.40326       -1.59606       -0.29075
C         -2.78667        0.00001       -0.37029
C         -3.99691       -0.86352       -0.06883
H         -3.88236       -1.82887       -0.56715
H         -4.91736       -0.39487       -0.42894
H         -4.08486       -1.03738        1.00884
N         -3.00695        1.34721        0.26961
H         -2.23639        1.99538        0.07206
H         -3.08541        1.25094        1.29000
H         -2.71300        0.20384       -1.44143
H         -3.87384        1.77840       -0.07222
