18
id_1178_cb.log	Energy: -454897.5120161
C          3.07641        1.00875       -0.01717
H          2.79033        1.55518       -0.91834
H          4.15668        0.85035       -0.02637
H          2.81050        1.58355        0.87233
S          2.33018       -0.63907        0.01531
C          0.58803       -0.27308        0.00333
C          0.05585        1.01735        0.00800
H          0.70383        1.88735        0.02029
C         -1.32339        1.21416        0.00093
H         -1.72094        2.22580        0.00554
C         -2.20785        0.13089       -0.01086
C         -1.66790       -1.16380       -0.01239
H         -2.33704       -2.02027       -0.01866
C         -0.29472       -1.36033       -0.00579
H          0.09534       -2.37522       -0.00545
N         -3.59005        0.32899       -0.08610
H         -4.12241       -0.43820        0.31162
H         -3.88742        1.21021        0.32042
