29
id_126_ca.log	Energy: -233008.4197211
C          2.60332        1.30083        0.25800
H          2.08226        1.78141        1.09279
H          2.26854        1.77268       -0.67350
H          3.67022        1.51081        0.37917
C          2.36817       -0.20861        0.20196
H          2.63556       -0.65374        1.16954
C          3.22730       -0.84762       -0.88805
H          4.28716       -0.65746       -0.69649
H          2.97911       -0.42403       -1.86798
H          3.07543       -1.93043       -0.93445
C          0.90985       -0.54660       -0.08535
H          0.75233       -1.62642       -0.14586
H          0.58222       -0.08281       -1.01950
N          0.00127       -0.05207        0.99798
H          0.01189        0.97490        1.01619
C         -1.41754       -0.53145        0.89883
H         -1.38029       -1.61807        1.00149
H         -1.93883       -0.10904        1.76204
C         -2.10181       -0.11475       -0.39776
H         -1.61464       -0.62765       -1.23538
C         -2.03006        1.39512       -0.62183
H         -2.43605        1.93175        0.24393
H         -2.62043        1.67298       -1.49986
H         -1.00604        1.74728       -0.79582
C         -3.55385       -0.58667       -0.32589
H         -4.07211       -0.36464       -1.26296
H         -4.08358       -0.07484        0.48557
H         -3.61524       -1.66503       -0.14788
H          0.38136       -0.35460        1.90363
