44
id_1429_ca.log	Energy: -591069.8486327
C          0.00451        3.65790       -0.61375
H          0.04883        4.73001       -0.77738
C         -0.22971        2.79729       -1.68560
H         -0.36958        3.19669       -2.68515
C         -0.28598        1.42199       -1.47736
H         -0.46866        0.75274       -2.31555
C         -0.11427        0.89512       -0.19260
C          0.12221        1.76253        0.87734
H          0.25468        1.35537        1.87722
C          0.18193        3.13902        0.66690
H          0.36592        3.80409        1.50476
C         -0.13223       -0.61312        0.01392
C          1.08645       -1.27921       -0.62897
H          1.14087       -2.34321       -0.38870
H          1.05848       -1.15779       -1.71318
N          2.36931       -0.66171       -0.16862
C          2.65906       -0.90737        1.28454
H          2.68335       -1.99209        1.41425
H          1.85239       -0.47628        1.87863
C          3.98702       -0.26916        1.65056
H          4.21938       -0.50513        2.69015
H          3.91980        0.82298        1.53906
O          5.03974       -0.77685        0.85050
C          4.80423       -0.48505       -0.51599
H          5.64538       -0.88049       -1.08742
H          4.75069        0.60303       -0.66594
C          3.52442       -1.14030       -1.00053
H          3.56349       -2.22570       -0.88287
H          3.31539       -0.88165       -2.03965
C         -1.39209       -1.21007       -0.61304
O         -1.30589       -1.91098       -1.60903
C         -2.72036       -0.88804       -0.01472
C         -2.85302       -0.22618        1.21141
H         -1.97924        0.08036        1.77674
C         -4.11895        0.04007        1.72454
H         -4.21703        0.55001        2.67724
C         -5.25567       -0.34606        1.01680
H         -6.24162       -0.13369        1.41851
C         -5.12896       -1.00532       -0.20639
H         -6.01390       -1.30529       -0.75825
C         -3.86687       -1.27725       -0.71838
H         -3.75477       -1.78970       -1.66817
H         -0.15333       -0.82937        1.08704
H          2.29330        0.35899       -0.30475
