18
id_1961_cb.log	Energy: -1948989.3177734
C          1.00751        2.69859        0.29327
H          1.41590        3.68214        0.50548
C         -0.35312        2.55649        0.06035
H         -1.02297        3.41035        0.08374
C         -0.87762        1.28945       -0.21814
C         -0.04435        0.16939       -0.26145
H         -0.42821       -0.82292       -0.46736
C          1.31525        0.35157       -0.01914
C          1.86432        1.59534        0.25811
H          2.92675        1.71035        0.44216
Br         2.44717       -1.16493       -0.06071
O         -2.22257        1.24101       -0.44736
C         -2.79303        0.00607       -0.85040
H         -3.79888        0.25202       -1.20010
H         -2.23521       -0.42277       -1.69026
C         -2.92525       -1.02993        0.27492
O         -2.66365       -0.68201        1.45286
O         -3.32258       -2.16633       -0.10226
