28
id_1416_ca.log	Energy: -303207.2344367
C         -4.39343       -0.26298        0.00470
H         -4.89579        0.61385        0.42074
H         -4.68882       -1.14360        0.58116
H         -4.75816       -0.40142       -1.01916
C         -2.89900       -0.08629        0.01302
C         -2.32762        1.18771       -0.01151
H         -2.96922        2.06406       -0.01362
C         -0.94580        1.35510       -0.03055
H         -0.50940        2.34987       -0.04747
C         -0.13119        0.23206       -0.02150
C         -0.66644       -1.05121        0.00730
H         -0.02482       -1.92693        0.02280
C         -2.04851       -1.19785        0.02443
H         -2.47485       -2.19659        0.05020
N          1.32488        0.41486       -0.03045
C          2.06481       -0.23362       -1.17400
H          1.75888       -1.28076       -1.18978
H          1.77315        0.25842       -2.10136
C          3.52266       -0.06234       -0.76769
H          4.13865       -0.84365       -1.21394
H          3.89250        0.90469       -1.11576
C          3.52143       -0.11528        0.78205
H          4.05785        0.73874        1.19753
H          3.98986       -1.02566        1.15783
C          2.04688       -0.08719        1.19922
H          1.80745        0.57609        2.02947
H          1.65262       -1.08467        1.39681
H          1.51315        1.42492       -0.09505
