23
id_177_cb.log	Energy: -337666.5279563
C          2.63771       -2.06164        0.26566
H          3.58764       -2.10839       -0.27393
H          1.97923       -2.84179       -0.13105
H          2.83054       -2.30290        1.31682
C          2.00301       -0.70078        0.13247
C          2.64406        0.33568       -0.55085
H          3.61931        0.15976       -0.99897
C          2.04267        1.59241       -0.65852
H          2.55287        2.39186       -1.18925
C          0.79463        1.82386       -0.08622
H          0.32684        2.80274       -0.17092
C          0.13199        0.80069        0.60587
C          0.74821       -0.44923        0.70432
H          0.24079       -1.25010        1.24192
C         -1.24645        1.03245        1.17670
H         -1.43239        0.33353        1.99900
H         -1.31401        2.04780        1.58201
C         -2.33981        0.85588        0.10790
H         -2.18897        1.57561       -0.70222
H         -3.31870        1.04676        0.56277
C         -2.33826       -0.56446       -0.45671
O         -2.58247       -1.50759        0.35144
O         -2.08626       -0.72292       -1.68643
