35
id_1646_ca.log	Energy: -625653.7783616
C          3.82700        1.72534       -1.66875
H          4.77283        2.26532       -1.75308
H          3.01321        2.45691       -1.62612
H          3.70234        1.10517       -2.56146
C          3.84927        0.87884       -0.40838
H          4.64597        0.13228       -0.46090
C          3.96968        1.71116        0.85567
H          4.09874        1.09652        1.74923
H          3.08614        2.34714        0.98049
H          4.84572        2.35769        0.76246
N          2.56713        0.07673       -0.37238
H          1.77339        0.73208       -0.32555
C          2.46352       -0.91269        0.74168
H          3.37375       -1.51406        0.72215
H          2.42120       -0.35664        1.67734
C          1.24772       -1.82714        0.58314
C         -0.06820       -1.07107        0.46236
C         -1.07372       -1.52797       -0.38821
H         -0.92043       -2.42792       -0.97508
C         -2.29118       -0.85677       -0.49829
H         -3.04448       -1.24725       -1.17330
C         -2.52613        0.29532        0.25289
C         -1.52424        0.75691        1.11721
H         -1.68979        1.65013        1.71353
C         -0.31637        0.08183        1.21964
H          0.43345        0.46521        1.90674
S         -4.02928        1.23269        0.19072
C         -5.02309        0.31142       -1.00840
H         -5.21679       -0.70605       -0.66306
H         -4.54471        0.29445       -1.98962
H         -5.97130        0.84732       -1.08462
O          1.44686       -2.74727       -0.47606
H          1.23002       -2.31801       -1.32017
H          1.22722       -2.43742        1.49290
H          2.48156       -0.41580       -1.27155
