19
id_1081_ca.log	Energy: -1865953.0002308
C         -1.32123        3.08496       -0.00252
H         -0.83441        3.47824       -0.90007
H         -0.83581        3.48608        0.89226
H         -2.37485        3.36063       -0.00453
O         -1.29816        1.66003        0.00348
C         -0.09306        1.05743        0.00308
C          1.12761        1.73777        0.00190
H          1.15033        2.82045        0.00153
C          2.32939        1.03499       -0.00171
H          3.27483        1.56878       -0.00426
C          2.30264       -0.34692       -0.00485
C          1.10902       -1.05604       -0.00262
H          1.10731       -2.14123       -0.00662
C         -0.07969       -0.34893        0.00123
Br        -1.71247       -1.29242       -0.00012
N          3.56135       -1.10176        0.00251
H          3.56015       -1.84720       -0.70626
H          4.36519       -0.49076       -0.19458
H          3.73128       -1.54781        0.91421
