15
id_123_cb.log	Energy: -321563.4925029
C          1.21810       -1.07871        0.00000
H          2.15323       -1.62963        0.00000
C          1.20850        0.31130       -0.00000
H          2.14624        0.85652       -0.00000
C         -0.00000        1.01484       -0.00000
C         -1.20850        0.31128       -0.00000
H         -2.14623        0.85651       -0.00000
C         -1.21809       -1.07872        0.00000
H         -2.15319       -1.62966        0.00000
C          0.00002       -1.76912        0.00000
C          0.00001       -3.20667        0.00000
N          0.00000       -4.36705        0.00000
C         -0.00001        2.54040       -0.00000
O         -1.12132        3.11549       -0.00000
O          1.12128        3.11551       -0.00000
