20
id_1129_cb.log	Energy: -229712.3432076
C         -3.08262        0.41615       -0.00082
H         -3.30217        1.19737       -0.73556
H         -3.39294        0.79796        0.97866
H         -3.70670       -0.45201       -0.23043
C         -1.62055        0.04888       -0.00986
C         -1.20089       -1.28107       -0.00160
H         -1.94117       -2.07765       -0.00710
C          0.15291       -1.60805        0.00537
H          0.46397       -2.64998        0.00456
C          1.12999       -0.60874        0.00863
C          0.72895        0.74293        0.00220
C         -0.63178        1.03922       -0.01042
H         -0.93192        2.08614       -0.02005
C          1.76861        1.83065        0.01010
H          2.44225        1.72953        0.86929
H          1.30026        2.81671        0.05541
H          2.39511        1.79734       -0.89057
N          2.49039       -0.93707        0.08434
H          3.09278       -0.28261       -0.40519
H          2.68008       -1.88322       -0.23088
