10
id_1461_cb.log	Energy: -212708.6669662
C          1.18288        0.22491        0.00000
H          2.14988        0.72628        0.00000
C          0.00000        1.00934        0.00000
C         -1.18288        0.22496        0.00000
H         -2.14989        0.72631        0.00000
N         -1.18742       -1.10935        0.00000
C         -0.00003       -1.72052        0.00000
H         -0.00001       -2.80558        0.00000
N          1.18741       -1.10937        0.00000
O          0.00004        2.30649        0.00000
