21
id_1904_ca.log	Energy: -266219.1972581
C          2.93146       -0.42958        0.73907
H          2.36234        0.01143        1.56360
H          3.93221        0.01344        0.73429
H          3.03551       -1.50258        0.93250
C          2.22583       -0.17977       -0.60062
H          2.83811       -0.59775       -1.40738
H          2.13201        0.89442       -0.77475
C          0.88698       -0.85615       -0.63742
H          0.91451       -1.91737       -0.89037
C         -0.33184       -0.34167       -0.39848
C         -1.59230       -1.17181       -0.47761
H         -2.29461       -0.71435       -1.18353
H         -1.32902       -2.15608       -0.87753
C         -2.27011       -1.33473        0.88601
H         -2.54240       -0.36476        1.31624
H         -1.60204       -1.84225        1.58989
H         -3.18449       -1.92916        0.79365
C         -0.48613        1.08975       -0.02558
O          0.34818        1.77703        0.54126
O         -1.68724        1.58896       -0.36981
H         -1.73296        2.52080       -0.08035
