31
id_1981_ca.log	Energy: -413402.6683930
C         -3.73138        0.44970        1.74935
H         -3.56929       -0.42248        2.38969
H         -4.78681        0.72626        1.80279
H         -3.13505        1.28635        2.12830
C         -3.37003        0.14868        0.30526
H         -3.94602       -0.70259       -0.06642
C         -3.53502        1.35569       -0.60116
H         -2.84003        2.15048       -0.30764
H         -4.55377        1.73545       -0.49077
H         -3.37959        1.11376       -1.65478
N         -1.92931       -0.31216        0.27855
H         -1.33460        0.47446        0.57837
C         -1.44903       -0.84367       -1.02968
H         -2.12121       -1.65832       -1.30293
H         -1.52606       -0.05283       -1.77418
C         -0.02443       -1.38143       -0.92209
C          1.01877       -0.33589       -0.54964
C          0.87473        1.01493       -0.88595
H         -0.00614        1.36713       -1.41425
C          1.86849        1.93473       -0.55394
H          1.74216        2.97963       -0.81746
C          3.02011        1.52961        0.11348
H          3.80679        2.22492        0.38429
C          3.14253        0.18676        0.43135
C          2.17417       -0.75164        0.11761
H          2.33412       -1.78980        0.38836
F          4.25002       -0.22858        1.07270
O          0.00771       -2.50222       -0.05252
H          0.17407       -2.19685        0.85525
H          0.21539       -1.77149       -1.91768
H         -1.81405       -1.04883        0.98770
