34
id_1667_cb.log	Energy: -631199.7006750
C          5.63117        1.61120        0.41032
H          5.77647        1.47376        1.48474
H          5.45743        2.67690        0.22589
H          6.56054        1.34154       -0.10094
C          4.47755        0.78446       -0.09483
C          4.22773        0.67806       -1.46839
H          4.88243        1.18805       -2.17078
C          3.15066       -0.06700       -1.93581
H          2.96494       -0.13893       -3.00333
C          2.30513       -0.72415       -1.04148
H          1.46430       -1.30361       -1.41224
C          2.54222       -0.63293        0.32847
C          3.62268        0.12491        0.78845
H          3.79905        0.20314        1.85991
C          1.67688       -1.35729        1.34349
H          1.62331       -0.77436        2.26900
H          2.13423       -2.31559        1.60092
N          0.33566       -1.66783        0.87704
H          0.12301       -2.62595        0.63389
C         -0.59579       -0.74369        0.61256
C         -0.32482        0.63575        0.87151
H          0.64545        0.91487        1.26181
C         -1.25243        1.61424        0.64003
H         -1.01841        2.65112        0.84900
C         -2.51311        1.26815        0.12581
C         -2.83572       -0.04045       -0.15233
H         -3.80626       -0.30296       -0.55200
C         -1.89418       -1.03563        0.08392
N         -2.30427       -2.37924       -0.24338
O         -3.42880       -2.56237       -0.68749
O         -1.51209       -3.30401       -0.06969
N         -3.49198        2.29956       -0.12225
O         -3.18651        3.45788        0.13023
O         -4.58387        1.97734       -0.57255
