19
id_1425_ca.log	Energy: -342553.9599416
C          0.28136        2.74696       -0.15035
H          0.23445        3.81761       -0.32453
C          1.50493        2.13722        0.12618
H          2.41585        2.72777        0.16887
C          1.55923        0.76360        0.35163
C          0.39209       -0.00576        0.29990
H          0.44098       -1.07797        0.47163
C         -0.82090        0.61772        0.02897
C         -0.88964        1.99196       -0.19885
H         -1.84046        2.47022       -0.41018
I         -2.59367       -0.53989       -0.04077
C          2.87806        0.07964        0.64202
C          3.24446       -0.85377       -0.50831
O          3.38137       -2.05410       -0.39926
O          3.40903       -0.18671       -1.65230
H          3.64479       -0.81263       -2.36560
O          2.75956       -0.64755        1.84496
H          3.60016       -1.10448        2.02048
H          3.67147        0.83521        0.70557
