23
id_1370_ca.log	Energy: -264710.3118481
C          2.14940       -1.25142       -0.67267
H          2.13381       -2.10788        0.00052
H          3.05055       -1.26049       -1.28510
H          1.26284       -1.24392       -1.30553
N          2.16386       -0.00261        0.14129
C          2.17480        1.20524       -0.73148
H          1.28364        1.19053       -1.35884
H          3.07044        1.16447       -1.35062
H          2.18754        2.09309       -0.09953
C          1.07350        0.03660        1.18544
H          1.22768       -0.83891        1.81716
H          1.24598        0.94543        1.76461
C         -0.30855        0.02154        0.58841
C         -0.96893        1.21643        0.30705
H         -0.48627        2.16544        0.51949
C         -2.24645        1.16206       -0.24233
H         -2.78666        2.07465       -0.47249
C         -2.81352       -0.08323       -0.48312
H         -3.80675       -0.18049       -0.90701
C         -2.07854       -1.22077       -0.15879
H         -2.49851       -2.20880       -0.32711
N         -0.85233       -1.18495        0.37014
H          3.04467        0.00105        0.66939
