17
id_1879_cb.log	Energy: -493439.2474229
C         -0.03148       -2.13363       -0.02922
H          0.53116       -2.59157       -0.85034
H         -1.08345       -2.38907       -0.15110
H          0.32205       -2.59642        0.90079
C          0.19394       -0.64792       -0.00933
C          1.52220       -0.16404       -0.00262
C          1.77502        1.21279       -0.00293
H          2.80494        1.55829        0.00167
C          0.72508        2.12137       -0.00634
H          0.93297        3.18675       -0.00539
C         -0.59295        1.67743       -0.00135
H         -1.42447        2.37255        0.00357
C         -0.82466        0.30459       -0.00081
Cl        -2.50669       -0.21511        0.01309
N          2.57972       -1.06900       -0.06363
H          2.40678       -1.95361        0.40163
H          3.46289       -0.67058        0.23760
