23
id_1305_ca.log	Energy: -405331.0572947
C         -2.67975        1.87007       -0.00001
H         -3.32993        2.73739       -0.00002
C         -1.31831        2.01600       -0.00001
H         -0.86207        3.00107       -0.00001
C         -0.47022        0.87597       -0.00000
C          0.93720        1.02085       -0.00000
H          1.37994        2.01044       -0.00001
C          1.71745       -0.10324        0.00000
C          1.18768       -1.41034        0.00001
H          1.85173       -2.26533        0.00001
C         -0.17214       -1.56714        0.00001
H         -0.58490       -2.57056        0.00002
C         -1.03009       -0.43368        0.00000
C         -2.44527       -0.52246        0.00000
C         -3.25566        0.57730       -0.00001
H         -4.33539        0.45983       -0.00001
N         -3.05897       -1.85540        0.00001
H         -2.79024       -2.40446       -0.82933
H         -4.08535       -1.78629        0.00000
N          3.17249        0.05668       -0.00000
O          3.85850       -0.95267       -0.00005
O          3.63231        1.18685        0.00004
H         -2.79025       -2.40445        0.82935
