24
id_1558_cb.log	Energy: -278248.8951916
C          4.08782       -0.25138       -0.25036
H          4.59522        0.70778       -0.38259
H          4.32326       -0.88533       -1.11119
H          4.51251       -0.73768        0.63478
C          2.60016       -0.06351       -0.10379
C          2.03483        1.20513        0.03047
H          2.67969        2.08054        0.01951
C          0.65813        1.36806        0.17751
H          0.24288        2.36765        0.27988
C         -0.20138        0.26642        0.19451
C          0.36557       -1.00882        0.06013
H         -0.27014       -1.89137        0.06875
C          1.73864       -1.16705       -0.08732
H          2.15343       -2.16704       -0.19239
C         -1.66782        0.46931        0.34642
C         -2.52855       -0.52960        1.09949
H         -3.32647       -0.12136        1.71323
H         -2.03435       -1.40938        1.50289
C         -2.65996       -0.38938       -0.38345
N         -3.79822        0.24275       -1.01531
H         -4.07097        1.04181       -0.44257
H         -4.58719       -0.40187       -0.96020
H         -1.96309        1.51055        0.45853
H         -2.23190       -1.18860       -0.98313
