24
id_1747_ca.log	Energy: -1951365.3305079
C         -1.01956        2.66228        1.26662
H         -1.81460        3.41483        1.27869
H         -0.05986        3.18867        1.30376
H         -1.11191        2.05093        2.17042
C         -1.15356        1.80833        0.00001
H         -2.15693        1.38568        0.00006
C         -1.01963        2.66221       -1.26665
H         -0.05993        3.18858       -1.30388
H         -1.81466        3.41477       -1.27871
H         -1.11204        2.05081       -2.17042
C         -0.15387        0.65823        0.00000
C          1.21037        1.08746       -0.00001
H          1.31655        2.17127       -0.00003
C          2.41719        0.44411       -0.00000
C          2.70307       -0.99838        0.00001
O          3.88968       -1.37582        0.00002
C          1.63501       -1.96455       -0.00003
H          2.00113       -2.98808       -0.00004
C          0.27953       -1.82032       -0.00003
H         -0.26099       -2.76261       -0.00004
C         -0.54429       -0.65964       -0.00001
Br        -2.40272       -1.10714        0.00002
O          3.56752        1.15639       -0.00000
H          3.38530        2.11210        0.00001
