24
id_1948_cb.log	Energy: -301545.9095746
C         -3.23924       -1.35359       -0.08973
H         -3.33784       -2.32931       -0.57217
H         -4.24628       -0.98206        0.12470
H         -2.72876       -1.50472        0.87178
N         -2.57233       -0.42573       -1.00108
H         -1.63499       -0.78882       -1.17889
C         -2.42219        0.90761       -0.42003
H         -2.01319        1.57029       -1.19130
H         -3.42307        1.27942       -0.17306
C         -1.52626        1.01150        0.82850
H         -1.53304        2.05513        1.16245
H         -1.94637        0.41037        1.64206
C         -0.11269        0.57422        0.53987
C          0.81790        1.47161        0.00212
H          0.52602        2.50691       -0.15908
C          2.10831        1.07157       -0.32382
H          2.82907        1.77251       -0.73335
C          2.48995       -0.25510       -0.11848
C          1.58150       -1.17015        0.40964
H          1.88750       -2.20109        0.56807
C          0.29218       -0.74995        0.73177
H         -0.40893       -1.46783        1.15210
O          3.77421       -0.60496       -0.45119
H          3.90571       -1.54720       -0.25538
