19
id_1465_cb.log	Energy: -297033.6680711
C          3.32681       -0.80037        0.07269
H          3.67911       -0.14835       -0.72993
H          3.88789       -1.73368        0.03411
H          3.52654       -0.30612        1.02965
N          1.92238       -1.11236       -0.09528
H          1.61666       -2.06309        0.05804
C          0.95681       -0.16555       -0.03973
N          1.33618        1.11938       -0.02563
C          0.33311        2.01255       -0.00117
H          0.62980        3.05848        0.00935
C         -1.00055        1.67406        0.01315
H         -1.79912        2.40332        0.03556
C         -1.26312        0.29314        0.00284
N         -0.31808       -0.62550       -0.02326
O         -2.55360       -0.07838        0.02300
C         -2.83834       -1.47854        0.01208
H         -2.41249       -1.96737        0.89087
H         -2.44631       -1.94652       -0.89341
H         -3.92494       -1.55194        0.03178
