24
id_1297_cb.log	Energy: -348608.0423529
C          3.74689       -1.18058       -0.00538
H          3.46602       -1.76372       -0.88872
H          3.48047       -1.73719        0.89930
H          4.82042       -0.99282       -0.01688
O          3.12415        0.09564       -0.01928
C          1.75910        0.11706       -0.00838
C          0.96201       -1.00198        0.01376
H          1.37274       -2.00464        0.02390
C         -0.45112       -0.83707        0.01711
C         -1.31305       -1.96640        0.03239
H         -0.86535       -2.95652        0.05588
C         -2.67844       -1.81852        0.01288
H         -3.32005       -2.69442        0.02401
C         -3.25383       -0.52851       -0.03153
H         -4.33297       -0.41765       -0.06319
C         -2.44617        0.58442       -0.04187
H         -2.90048        1.56888       -0.09722
C         -1.03434        0.46109       -0.00439
C         -0.16326        1.60697        0.00184
C          1.19938        1.41894       -0.00516
H          1.87233        2.27159        0.00272
N         -0.70920        2.88799       -0.05162
H         -1.55021        3.00382        0.50425
H         -0.03476        3.60911        0.18388
