35
id_1657_ca.log	Energy: -422986.5133576
C         -3.25340        2.35647        0.41663
H         -2.49069        3.08768        0.13820
H         -3.45495        2.46174        1.48758
H         -4.17820        2.60627       -0.11341
C         -2.80904        0.95527        0.09027
C         -3.64509       -0.13627        0.36070
H         -4.61919        0.04114        0.80992
C         -3.24678       -1.43409        0.06103
H         -3.90774       -2.26779        0.27657
C         -1.99757       -1.66884       -0.51411
H         -1.67788       -2.68074       -0.74753
C         -1.15532       -0.59494       -0.79423
C         -1.56716        0.70757       -0.49179
H         -0.90620        1.54330       -0.72149
C          0.19733       -0.81457       -1.41376
H          0.35892       -0.13441       -2.25394
H          0.33988       -1.84387       -1.74993
N          1.30565       -0.52831       -0.43078
C          1.37411       -1.53574        0.67440
H          0.34562       -1.73137        0.98411
H          1.81815       -2.44785        0.26967
C          2.17102       -0.96765        1.84307
H          3.23978       -0.91150        1.61216
H          2.04763       -1.64722        2.68986
O          1.66914        0.30749        2.21126
H          2.17191        0.97127        1.70250
C          2.62392       -0.32275       -1.13071
H          3.41006       -0.77673       -0.52618
H          2.58054       -0.83112       -2.09468
C          2.87066        1.16057       -1.28133
H          2.06619        1.62720       -1.86203
H          3.81903        1.31255       -1.80653
O          2.91600        1.70102        0.03642
H          2.76777        2.65792       -0.01615
H          1.07272        0.36345        0.03426
