33
id_1235_cb.log	Energy: -516197.5995828
C          1.85722        2.41352       -0.41186
H          2.90889        2.67237       -0.47663
C          1.20701        1.80625       -1.48524
H          1.75377        1.59118       -2.39933
C         -0.14028        1.46117       -1.41146
H         -0.61179        0.97912       -2.26142
C         -0.86773        1.69707       -0.23539
C         -0.21727        2.34070        0.83169
H         -0.77450        2.53526        1.74548
C          1.12532        2.68829        0.74424
H          1.60477        3.16884        1.59251
N         -2.21889        1.35500       -0.09934
H         -2.50511        1.38413        0.87576
C         -2.76984        0.17247       -0.74886
H         -3.86047        0.28043       -0.76437
H         -2.44303        0.12485       -1.78935
C         -2.44201       -1.15652       -0.04281
C         -0.95658       -1.42400       -0.03106
C         -0.34871       -1.99786       -1.14586
H         -0.96181       -2.36023       -1.96701
C          1.04046       -2.08455       -1.23275
H          1.52601       -2.52176       -2.09958
C          1.82935       -1.58842       -0.20359
C          1.22130       -1.03251        0.93029
C         -0.16088       -0.96813        1.02296
H         -0.61145       -0.50958        1.89899
O          2.07969       -0.56206        1.89244
H          1.57907       -0.05302        2.55179
O          3.19573       -1.64472       -0.29794
H          3.56935       -1.21388        0.49058
O         -2.91222       -1.12293        1.29947
H         -3.86412       -0.93404        1.26833
H         -2.94711       -1.95577       -0.60388
