17
id_128_ca.log	Energy: -134382.4243251
C         -1.80288       -0.71437        0.35050
H         -1.11204       -1.51405        0.63974
H         -2.67984       -1.18705       -0.10081
H         -2.12573       -0.20427        1.26488
C         -1.15610        0.26945       -0.62112
H         -1.91103        0.97015       -0.99229
H         -0.78832       -0.26908       -1.50435
C         -0.02554        1.09095        0.00610
H         -0.43381        1.73310        0.79445
H          0.41993        1.75136       -0.74684
C          1.07665        0.26872        0.65191
H          0.71217       -0.35430        1.46925
H          1.88002        0.90369        1.02458
N          1.70211       -0.66302       -0.34341
H          2.03343       -0.14922       -1.16841
H          1.03320       -1.37238       -0.66481
H          2.50453       -1.15529        0.06412
