15
id_1957_ca.log	Energy: -240207.1704429
C         -1.08474       -0.94469       -1.07047
H         -0.75595       -1.96041       -0.84135
H         -0.71957       -0.66560       -2.06361
H         -2.17852       -0.92171       -1.07465
C         -0.58378        0.03614       -0.01757
C         -1.03342       -0.36343        1.38939
H         -0.64945       -1.35101        1.65817
H         -2.12692       -0.38953        1.41133
H         -0.68095        0.36680        2.12608
C          0.94248        0.10980       -0.03351
O          1.57537        1.14504       -0.10448
O          1.51893       -1.09080        0.07408
H          2.49027       -0.98331        0.09169
O         -1.10061        1.30944       -0.36742
H         -0.77176        1.96850        0.26784
