25
id_1297_ca.log	Energy: -348888.3178025
C         -3.77405       -1.17454        0.00002
H         -3.50511       -1.74433        0.89524
H         -3.50515       -1.74434       -0.89521
H         -4.84435       -0.97170        0.00004
O         -3.13592        0.09699       -0.00000
C         -1.77873        0.10226       -0.00001
C         -0.97766       -1.01278       -0.00001
H         -1.39741       -2.01235       -0.00002
C          0.43816       -0.87489       -0.00001
C          1.27912       -2.01849       -0.00001
H          0.81541       -3.00077       -0.00003
C          2.64506       -1.88615       -0.00001
H          3.27631       -2.76899       -0.00001
C          3.23961       -0.60274        0.00001
H          4.32063       -0.51052        0.00003
C          2.45805        0.52663        0.00002
H          2.93418        1.50308        0.00004
C          1.04315        0.41367        0.00000
C          0.15552        1.52394       -0.00000
C         -1.19850        1.39981       -0.00001
H         -1.84821        2.26983       -0.00001
N          0.72291        2.87759       -0.00001
H          1.31112        3.04632       -0.82885
H         -0.01995        3.58800       -0.00001
H          1.31112        3.04633        0.82883
