20
id_1828_cb.log	Energy: -583180.7435964
C          3.20061       -1.49367        0.00267
H          4.27091       -1.70891        0.00452
H          2.75125       -1.92783       -0.89305
H          2.74885       -1.92395        0.89908
S          3.05211        0.30832       -0.00122
C          1.29268        0.53323       -0.00122
C          0.81424        1.86771        0.00162
H          1.52140        2.69320        0.00507
C         -0.52573        2.14477        0.00182
H         -0.86996        3.17440        0.00425
C         -1.51146        1.11763       -0.00097
C         -1.00987       -0.20462       -0.00310
C          0.37312       -0.48738       -0.00262
H          0.67057       -1.52765       -0.00346
N         -1.89210       -1.33072       -0.00006
O         -1.41842       -2.46434        0.00724
O         -3.11123       -1.14161       -0.00721
N         -2.81100        1.47715       -0.02785
H         -3.53566        0.78915        0.10677
H         -3.03373        2.45512        0.10218
