30
id_1340_ca.log	Energy: -256915.0887224
C         -4.50429        0.48749       -0.23161
H         -4.45994        1.42688        0.32947
H         -5.47234        0.01984       -0.03010
H         -4.46322        0.73212       -1.29835
C         -3.35345       -0.43368        0.15808
H         -3.42956       -1.37950       -0.39139
H         -3.41983       -0.68177        1.22447
C         -1.99376        0.20512       -0.12555
H         -1.93010        1.16122        0.40409
H         -1.90191        0.41515       -1.19941
C         -0.87221       -0.72521        0.30665
H         -1.02352       -1.72480       -0.10935
H         -0.80245       -0.80490        1.39514
N          0.48010       -0.28288       -0.17050
C          1.51688       -1.32909        0.13264
H          1.53264       -1.42527        1.22232
H          1.15973       -2.26245       -0.30520
C          2.87518       -0.92404       -0.41555
H          3.58762       -1.71151       -0.15427
H          2.82161       -0.88001       -1.51039
C          3.31155        0.42885        0.14204
H          3.45519        0.34787        1.22667
H          4.26720        0.72965       -0.29597
C          2.24074        1.47625       -0.15291
H          2.15824        1.63361       -1.23561
H          2.49139        2.44030        0.29844
C          0.88448        1.05284        0.38959
H          0.10805        1.76818        0.11995
H          0.90043        0.92687        1.47658
H          0.42936       -0.18249       -1.19386
