30
id_173_cb.log	Energy: -350851.7966541
C         -0.89698       -0.79741       -1.55534
H         -1.05497       -1.83541       -1.24302
H          0.15425       -0.67624       -1.82636
H         -1.48741       -0.61030       -2.45390
C         -1.26093        0.16549       -0.42895
C         -0.31389       -0.01212        0.78381
C          1.14524        0.06321        0.39772
C          1.69944        1.30922        0.08980
H          1.08174        2.20160        0.16465
C          3.03057        1.41534       -0.30366
H          3.44789        2.38953       -0.54002
C          3.82825        0.27396       -0.38386
H          4.86837        0.35498       -0.68425
C          3.28323       -0.96949       -0.07169
H          3.89862       -1.86247       -0.12848
C          1.94736       -1.07576        0.31416
H          1.52452       -2.04599        0.55295
O         -0.59440       -1.24979        1.41671
H         -1.54864       -1.39261        1.26881
N         -2.64650       -0.04977        0.03738
C         -3.59671        0.01403       -1.07381
H         -3.50073        0.95108       -1.64834
H         -4.61257       -0.03849       -0.67488
H         -3.46355       -0.82782       -1.75424
C         -3.02654        0.95823        1.02988
H         -4.08946        0.85001        1.25771
H         -2.85304        1.98577        0.66811
H         -2.47718        0.81818        1.96313
H         -1.14201        1.20369       -0.79058
H         -0.49933        0.81305        1.48493
