14
id_196_cb.log	Energy: -133313.0421358
C          1.80251       -0.00000        0.10638
H          2.35663        0.88595       -0.21766
H          2.35663       -0.88595       -0.21766
H          1.76619        0.00000        1.20892
N          0.47575       -0.00000       -0.48319
C         -0.44299        1.02870        0.05133
H         -0.17261        1.31801        1.07846
H         -0.54353        1.93212       -0.55769
C         -1.57909        0.00000        0.05011
H         -2.26263        0.00000        0.89895
H         -2.13941       -0.00000       -0.88672
C         -0.44299       -1.02870        0.05133
H         -0.54353       -1.93212       -0.55769
H         -0.17261       -1.31801        1.07846
