30
id_1636_cb.log	Energy: -350858.8855577
C         -3.42198       -0.96262       -1.33734
H         -4.46686       -1.27493       -1.25174
H         -2.81968       -1.85390       -1.55168
H         -3.33189       -0.27598       -2.18393
C         -2.94876       -0.30649       -0.04680
H         -3.55399        0.59020        0.13862
C         -3.11510       -1.26092        1.13594
H         -4.15179       -1.60485        1.21023
H         -2.85105       -0.78425        2.08465
H         -2.47271       -2.14018        1.00177
N         -1.56481        0.15767       -0.23322
H         -0.98850       -0.66343       -0.43262
C         -1.00180        0.83559        0.93338
H         -1.72911        1.58202        1.27272
H         -0.78100        0.17038        1.77959
C          0.27851        1.56430        0.50387
C          1.38834        0.57158        0.19524
C          2.04855       -0.06944        1.24858
H          1.78632        0.18132        2.27440
C          3.03772       -1.01510        0.99557
H          3.54573       -1.50082        1.82331
C          3.37938       -1.33405       -0.31933
H          4.15244       -2.06974       -0.51873
C          2.72642       -0.69971       -1.37306
H          2.98836       -0.94045       -2.39915
C          1.73602        0.24910       -1.11691
H          1.23643        0.75044       -1.94026
O         -0.02238        2.40007       -0.60058
H         -0.67861        1.88528       -1.11059
H          0.60478        2.21116        1.32570
