18
id_1848_cb.log	Energy: -641665.2219224
C         -2.24489       -1.21001       -0.04028
H         -2.76252       -2.14981        0.12970
C         -0.92625       -1.20782       -0.46726
H         -0.41018       -2.14933       -0.62983
C         -0.25673        0.00031       -0.68555
C         -0.92637        1.20823       -0.46650
H         -0.41040        2.14989       -0.62848
C         -2.24501        1.21002       -0.03953
H         -2.76274        2.14966        0.13104
C         -2.92686       -0.00010        0.17853
N         -4.25958       -0.00028        0.54217
H         -4.57635        0.84160        1.00962
H         -4.57627       -0.84246        1.00913
S          1.43249        0.00057       -1.24257
C          2.22462       -0.00016        0.38067
F          1.90310        1.07227        1.11167
F          1.90315       -1.07328        1.11067
F          3.54982       -0.00005        0.21149
