26
id_1263_ca.log	Energy: -349010.4842387
C          3.45867       -0.54303        0.39754
H          3.63855        0.14534        1.22931
H          3.81105       -0.09397       -0.53643
H          3.98535       -1.47986        0.57599
O          2.07940       -0.88276        0.30991
C          1.20759        0.13603        0.08954
C          1.55995        1.47824       -0.05190
H          2.59854        1.78249        0.00560
C          0.56695        2.43697       -0.25948
H          0.85287        3.47855       -0.36238
C         -0.77285        2.07576       -0.32633
H         -1.54390        2.82391       -0.48116
C         -1.13254        0.73196       -0.19928
C         -0.14596       -0.22698        0.00904
O         -0.51627       -1.54532        0.18460
C         -0.32942       -2.34344       -0.99316
H          0.72875       -2.37693       -1.26600
H         -0.91496       -1.93745       -1.82401
H         -0.68027       -3.34550       -0.74592
C         -2.56633        0.28966       -0.28709
H         -2.72226       -0.43408       -1.08920
H         -3.23503        1.13692       -0.43129
N         -2.98197       -0.39768        0.97873
H         -2.89160        0.22804        1.78708
H         -2.37777       -1.21685        1.13189
H         -3.95689       -0.71323        0.92602
