24
id_1683_ca.log	Energy: -207606.4171117
C         -2.22876       -0.01962       -0.79211
H         -2.83631        0.85575       -0.53969
H         -2.80398       -0.91763       -0.54117
H         -2.05044       -0.01347       -1.87271
C         -0.91136        0.02052       -0.01665
C         -0.11874        1.28166       -0.40390
H         -0.06797        1.33935       -1.49938
H         -0.66118        2.16729       -0.05510
C          1.30458        1.27853        0.15693
H          1.86434        2.14070       -0.21599
H          1.29646        1.34997        1.25031
C          2.05128        0.02384       -0.26127
H          3.03744       -0.05160        0.19689
H          2.15043       -0.04337       -1.34730
N          1.27496       -1.19106        0.15740
H          1.22110       -1.22477        1.18283
C         -0.10856       -1.21656       -0.42496
H          0.02584       -1.25858       -1.50928
H         -0.58416       -2.13855       -0.08375
C         -1.21701       -0.00431        1.48532
H         -0.31845        0.02065        2.11105
H         -1.78246       -0.90565        1.74514
H         -1.82283        0.86788        1.75235
H          1.77878       -2.03488       -0.13617
