40
id_1317_ca.log	Energy: -401842.4075685
C         -4.37175       -2.54397        0.94686
H         -3.51588       -3.22584        0.98820
H         -5.25003       -3.12292        0.64713
H         -4.54700       -2.16435        1.95907
C         -4.10759       -1.39832       -0.02382
H         -4.98569       -0.74388       -0.07751
H         -3.94712       -1.79536       -1.03364
C         -2.88960       -0.57220        0.39097
H         -2.01987       -1.23344        0.47479
H         -3.06377       -0.12882        1.38027
C         -2.63408        0.53041       -0.62230
H         -3.54859        1.10186       -0.79948
H         -2.28416        0.13803       -1.58022
N         -1.61652        1.54085       -0.16331
C         -1.49824        2.64094       -1.16530
H         -1.06180        2.24585       -2.08173
H         -0.88204        3.43829       -0.75514
H         -2.50125        3.01775       -1.36339
C         -0.29274        0.92994        0.25480
C          0.68127        2.00192        0.72634
H          1.05377        2.57106       -0.13259
H          0.18642        2.69868        1.41143
C          1.84837        1.30865        1.42573
H          1.50207        0.89401        2.38122
H          2.62615        2.03963        1.66641
C          2.43972        0.19673        0.58538
C          3.72574       -0.27721        0.87083
H          4.28261        0.17972        1.68555
C          4.29478       -1.30882        0.13433
H          5.29459       -1.65953        0.37124
C          3.57455       -1.88717       -0.91189
H          4.00663       -2.69400       -1.49578
C          2.29698       -1.42514       -1.20219
H          1.72874       -1.87285       -2.01420
C          1.71823       -0.38516       -0.46556
C          0.32773        0.08679       -0.85114
H         -0.29204       -0.78773       -1.07255
H          0.39666        0.67429       -1.77520
H         -0.54561        0.29352        1.10838
H         -1.99734        1.96575        0.69270
