9
id_1999_cb.log	Energy: -214509.5635631
C         -1.66946       -0.82415        0.00035
H         -1.52165       -1.45931       -0.87933
H         -2.67826       -0.40869        0.00040
H         -1.52141       -1.45900        0.88020
C         -0.65540        0.27733       -0.00000
O         -0.95975        1.45714       -0.00026
C          0.85531       -0.12407       -0.00005
O          1.09512       -1.35592       -0.00003
O          1.68196        0.81782       -0.00008
