22
id_1913_ca.log	Energy: -407544.2082033
C         -3.42915       -0.41567       -0.02820
H         -4.51173       -0.49653       -0.01947
C         -2.63014       -1.56984       -0.16323
H         -3.10396       -2.54117       -0.27320
C         -1.25315       -1.49295       -0.16818
H         -0.68532       -2.40358       -0.29198
C         -0.58446       -0.24440       -0.03423
C         -1.40276        0.91963        0.05870
C         -2.81553        0.80991        0.07291
H         -3.40035        1.72271        0.15603
C         -0.79838        2.20962        0.11687
H         -1.44360        3.08094        0.19553
C          0.55322        2.35966        0.05473
H          1.02672        3.33584        0.07879
C          1.38968        1.21572       -0.03678
C          0.85585       -0.07756       -0.03877
C          1.82110       -1.18776        0.01972
O          3.02486       -1.05907       -0.21785
O          1.34043       -2.36966        0.40487
H          2.07975       -3.00909        0.43388
O          2.70913        1.49203       -0.08884
H          3.20540        0.64630       -0.18629
