28
id_1902_cb.log	Energy: -548251.6874716
C         -2.84850        0.45738       -1.39341
H         -2.85393       -0.26893       -2.21443
H         -2.64422        1.44487       -1.82109
H         -3.85614        0.47757       -0.96302
Si        -1.57196        0.00048       -0.09393
C         -2.07298       -1.63514        0.69339
H         -1.37080       -1.92743        1.48266
H         -2.09658       -2.44187       -0.04819
H         -3.07090       -1.56544        1.14265
C         -1.50215        1.31300        1.24846
H         -1.23408        2.29156        0.83518
H         -0.77334        1.06332        2.02846
H         -2.48010        1.40908        1.73458
N         -0.00539       -0.07872       -0.86313
H         -0.00139       -0.50447       -1.78842
Si         1.56615       -0.01843       -0.09623
C          2.01115        1.74007        0.39933
H          1.33086        2.13209        1.16335
H          1.97220        2.41446       -0.46340
H          3.02713        1.77776        0.81033
C          1.60816       -1.09129        1.44971
H          1.38847       -2.13797        1.21037
H          0.87473       -0.75599        2.19289
H          2.59627       -1.05365        1.92365
C          2.81594       -0.65115       -1.34682
H          3.83003       -0.62566       -0.93263
H          2.81185       -0.03906       -2.25571
H          2.59921       -1.68527       -1.63688
