20
id_1268_cb.log	Energy: -323314.8496287
C         -0.98679        1.48795       -0.12022
H         -1.69998        2.30716       -0.14363
C          0.37466        1.77814        0.08242
H          0.73003        2.79276        0.22284
C          1.23550        0.70616        0.09528
C          0.78508       -0.59971       -0.07941
C         -0.54255       -0.89586       -0.27401
H         -0.88058       -1.91966       -0.40667
C         -1.44860        0.18581       -0.29799
C         -2.92428       -0.09802       -0.47372
H         -3.07359       -0.73568       -1.35048
H         -3.44938        0.84149       -0.66662
N         -3.56724       -0.75849        0.67070
H         -3.37103       -0.19531        1.49848
H         -3.07822       -1.63881        0.83521
O          1.85493       -1.46351        0.01321
C          3.01053       -0.62619       -0.06154
H          3.76140       -0.98046        0.64243
H          3.38459       -0.61668       -1.09144
O          2.59833        0.69163        0.30430
