32
id_1628_cb.log	Energy: -445238.0006551
C          3.45581       -1.49800        1.10730
H          3.27019       -2.27052        0.35515
H          2.70893       -1.60627        1.90370
H          4.44428       -1.68222        1.54036
C          3.38429       -0.09202        0.51096
H          4.09606       -0.02773       -0.32211
C          3.75241        0.95336        1.55573
H          4.75423        0.76658        1.95335
H          3.04466        0.91703        2.39295
H          3.72891        1.96071        1.13026
N          2.06310        0.24100       -0.04512
H          1.38924        0.21144        0.72378
C          1.60650       -0.68123       -1.08345
H          2.42094       -0.80572       -1.80624
H          1.32896       -1.67721       -0.71239
C          0.41027       -0.04936       -1.80661
C         -0.80978       -0.00870       -0.89805
C         -1.47578       -1.20216       -0.61089
H         -1.15916       -2.14210       -1.05435
C         -2.56962       -1.18651        0.25062
C         -3.00967        0.00312        0.83258
H         -3.86736        0.00822        1.50111
C         -2.33340        1.18267        0.53401
C         -1.23428        1.18787       -0.32748
H         -0.73459        2.12379       -0.55120
O         -2.71625        2.38414        1.06687
H         -3.49032        2.25008        1.63838
O         -3.19519       -2.37865        0.49843
H         -3.94002       -2.23083        1.10428
O          0.78346        1.23649       -2.26862
H          1.35583        1.58430       -1.55661
H          0.17091       -0.65655       -2.68623
