31
id_1249_cb.log	Energy: -398535.5877740
N          0.25323       -2.16500       -1.22437
H          1.17457       -2.61380       -1.26609
C          0.34406       -1.05075       -0.60112
C          1.62245       -0.50819       -0.05171
C          1.62627        0.20360        1.15276
H          0.69031        0.37919        1.67607
C          2.82211        0.67817        1.68449
H          2.81653        1.21993        2.62503
C          4.02187        0.46209        1.00833
H          4.95287        0.84124        1.41803
C          4.02316       -0.23428       -0.19961
H          4.95335       -0.39315       -0.73601
C          2.83025       -0.72058       -0.72559
H          2.83420       -1.24629       -1.67701
C         -0.90994       -0.27112       -0.36392
C         -2.00113       -0.94380        0.19437
H         -1.89285       -1.99736        0.43997
C         -3.21118       -0.29892        0.44915
C         -3.31244        1.05208        0.10861
H         -4.24648        1.58018        0.28455
C         -2.23756        1.72483       -0.46400
H         -2.34681        2.76994       -0.74278
C         -1.01711        1.08871       -0.70660
C          0.10823        1.85953       -1.35237
H          0.82598        2.22273       -0.60818
H         -0.28972        2.72837       -1.88318
H          0.66407        1.24653       -2.06825
C         -4.36273       -1.02977        1.08821
H         -4.37299       -0.87009        2.17238
H         -4.29305       -2.10670        0.91339
H         -5.32044       -0.67545        0.69658
