18
id_1910_cb.log	Energy: -335550.2191446
C          3.66032       -0.03293        0.00001
H          4.00250        1.00513       -0.00000
H          4.07534       -0.53304       -0.88172
H          4.07533       -0.53302        0.88176
C          2.15670       -0.11386        0.00001
C          1.51427       -1.36442        0.00000
H          2.10968       -2.27402        0.00000
C          0.12962       -1.43745       -0.00000
H         -0.36379       -2.40502       -0.00000
C         -0.66717       -0.28370       -0.00000
C         -0.01879        0.96525        0.00000
C          1.37938        1.04013        0.00001
H          1.84597        2.02229        0.00001
O         -0.71740        2.13388       -0.00001
H         -1.68191        1.85720       -0.00003
C         -2.16985       -0.38782       -0.00000
O         -2.82715        0.70929        0.00001
O         -2.70170       -1.52452       -0.00002
