31
id_1964_cb.log	Energy: -718494.9865926
C          3.74255       -2.85774        0.77844
H          4.73975       -3.19936        0.48538
H          3.05218       -3.70374        0.71408
H          3.78455       -2.50942        1.81443
C          3.30705       -1.74366       -0.14212
H          3.24933       -2.07865       -1.18129
H          3.97703       -0.88169       -0.07578
O          1.97688       -1.32507        0.27552
P          1.24685       -0.14379       -0.51174
O          1.17045       -0.30172       -1.99627
C         -0.34397       -0.01960        0.29942
C         -0.41085        0.30064        1.66134
H          0.49980        0.47397        2.22924
C         -1.65318        0.39710        2.28086
H         -1.71495        0.64322        3.33643
C         -2.81873        0.18150        1.54420
H         -3.78723        0.25937        2.02809
C         -2.75857       -0.13049        0.18401
C         -1.51090       -0.22974       -0.43657
H         -1.45401       -0.46895       -1.49419
C         -4.03323       -0.35357       -0.61836
O         -5.12960       -0.25404       -0.00309
O         -3.90471       -0.61921       -1.84440
O          2.11633        1.12380       -0.04498
C          1.81435        2.41669       -0.63169
H          2.06579        2.37738       -1.69503
H          0.74082        2.60948       -0.52406
C          2.63273        3.45368        0.09914
H          3.70119        3.24005        0.00124
H          2.36964        3.47567        1.16074
H          2.43499        4.44062       -0.32955
