27
id_1198_ca.log	Energy: -437055.6039411
C         -2.53453       -0.91790        1.52978
H         -2.13933       -1.93973        1.54707
H         -3.62829       -0.98187        1.54945
H         -2.20949       -0.41462        2.44661
Si        -1.95242        0.00635        0.00103
C         -2.52986       -0.89406       -1.54374
H         -3.62358       -0.95676       -1.56889
H         -2.13524       -1.91581       -1.57484
H         -2.20058       -0.37723       -2.45150
C         -2.57767        1.77553        0.01370
H         -3.67338        1.78640        0.01497
H         -2.24087        2.32900       -0.86955
H         -2.23879        2.31687        0.90367
C         -0.05795        0.02329        0.00299
C          0.65617       -1.18555        0.00048
H          0.12450       -2.13465       -0.00068
C          2.04745       -1.21032       -0.00472
H          2.59693       -2.14712       -0.00997
C          2.72493       -0.00021       -0.00795
C          2.06796        1.21889       -0.00497
H          2.63199        2.14696       -0.01024
C          0.67423        1.21810        0.00041
H          0.15845        2.17473       -0.00061
N          4.19549       -0.01319        0.00748
H          4.58579        0.81799       -0.45584
H          4.57124       -0.84197       -0.47171
H          4.56179       -0.02549        0.96948
