29
id_1516_cb.log	Energy: -350714.2267385
C         -4.04056        0.04894       -0.00295
C         -3.38983       -1.18473        0.00411
C         -2.00003       -1.24374        0.00181
C         -1.23188       -0.06978       -0.01529
C         -1.89738        1.16393       -0.01550
C         -3.28880        1.22219       -0.01226
C          0.24207       -0.13189       -0.05297
C          0.94775       -1.11014       -0.63859
N          2.38663       -1.00711       -0.58664
C          2.76363        0.28181       -1.22726
C          2.03594        1.48286       -0.57567
C          1.13494        0.93236        0.54923
C          2.05624        0.23578        1.57235
C          2.78367       -0.91837        0.84279
H         -5.12514        0.09464        0.00486
H         -3.96716       -2.10419        0.02288
H         -1.49908       -2.20721        0.03343
H         -1.32262        2.08570       -0.03648
H         -3.78607        2.18742       -0.01887
H          0.51659       -1.95495       -1.17138
H          2.52260        0.20722       -2.29005
H          3.84938        0.38175       -1.13975
H          1.43017        2.01927       -1.31238
H          2.75235        2.19420       -0.15124
H          0.56257        1.73087        1.02601
H          1.46633       -0.14291        2.41214
H          2.77076        0.96481        1.96908
H          2.55960       -1.88012        1.30957
H          3.86864       -0.78197        0.86988
