29
id_109_cb.log	Energy: -512620.6418176
C         -5.43311       -0.08163       -0.00025
H         -6.51169        0.04874       -0.01585
C         -4.88298       -1.37464        0.10886
H         -5.53704       -2.23906        0.17628
C         -3.51052       -1.53741        0.12878
H         -3.07947       -2.53037        0.21198
C         -2.64363       -0.42771        0.04039
C         -3.19588        0.87363       -0.07114
C         -4.60384        1.01861       -0.08839
H         -5.02277        2.01871       -0.17350
C         -2.32660        2.01276       -0.16394
H         -2.75976        3.00578       -0.24395
C         -0.97943        1.82573       -0.15103
H         -0.30499        2.67623       -0.22148
C         -0.36579        0.53377       -0.04999
C         -1.18192       -0.65036        0.06278
O         -0.73224       -1.82661        0.17835
N          1.00844        0.59201       -0.06191
N          1.69962       -0.46884       -0.03199
C          3.09679       -0.21716       -0.01246
C          3.66639        1.02025        0.32329
H          3.02990        1.85909        0.57791
C          5.04893        1.13412        0.32952
H          5.51798        2.07915        0.58854
C          5.82550        0.01982        0.00872
H          6.90943        0.06224        0.00417
C          5.16657       -1.16578       -0.29721
H          5.73342       -2.05938       -0.54532
N          3.83479       -1.29632       -0.30515
