25
id_1741_cb.log	Energy: -481063.9827550
C         -3.51894       -0.32403        0.17727
H         -3.86701       -1.28852       -0.20143
H         -4.26224        0.43277       -0.09460
H         -3.46116       -0.37564        1.26876
C         -2.17379        0.05927       -0.41535
C         -1.64641        1.40556        0.08877
H         -1.93074        1.54904        1.14022
H         -2.08038        2.22774       -0.48525
N         -0.18727        1.44675        0.01203
C          0.32569        0.28180        0.02139
S         -0.82731       -1.10340        0.03231
C          1.81124       -0.01473        0.01039
C          2.60795        1.26632        0.26120
H          2.41462        2.01282       -0.51358
H          3.67723        1.03144        0.25434
H          2.35736        1.70444        1.23194
C          2.18680       -0.58939       -1.36455
H          1.94503        0.12114       -2.16192
H          1.65979       -1.52730       -1.56459
H          3.26332       -0.78821       -1.39350
C          2.13677       -1.04181        1.10349
H          3.21585       -1.22627        1.11741
H          1.63784       -2.00018        0.92258
H          1.83618       -0.67586        2.09085
H         -2.23364        0.07181       -1.50793
