20
id_1290_cb.log	Energy: -276770.6891193
C         -2.93830        0.37199        0.00512
H         -3.96027        0.73759        0.00804
C         -2.69113       -1.02382        0.00289
H         -3.52887       -1.71488        0.00410
C         -1.40580       -1.50613       -0.00076
H         -1.21660       -2.57659       -0.00238
C         -0.29428       -0.61776       -0.00334
C          1.04240       -1.08947       -0.00406
H          1.22562       -2.16171       -0.00154
C          2.10730       -0.21064       -0.00839
C          1.84892        1.19256       -0.00562
H          2.69340        1.87691       -0.00764
C          0.56691        1.66926        0.00019
H          0.38273        2.74060        0.00632
C         -0.54631        0.78439       -0.00046
C         -1.88546        1.25361        0.00387
H         -2.05969        2.32686        0.00608
N          3.42655       -0.65177       -0.07966
H          3.55970       -1.59664        0.26494
H          4.09257       -0.01372        0.34296
