27
id_1702_ca.log	Energy: -232260.4557452
C         -2.53111       -1.42835        0.15757
H         -3.43089       -0.90284       -0.17723
H         -2.53959       -1.45915        1.25283
H         -2.57811       -2.45704       -0.21147
C         -1.26648       -0.74170       -0.34760
C          0.00000       -1.47670        0.09406
H          0.00000       -1.56400        1.19075
H          0.00000       -2.49350       -0.31446
C          1.26648       -0.74170       -0.34760
C          1.23935        0.69476        0.15711
H          2.09071        1.27273       -0.20960
H          1.22194        0.73346        1.25166
N         -0.00000        1.40573       -0.30313
C         -1.23935        0.69476        0.15711
H         -1.22194        0.73346        1.25166
H         -2.09071        1.27273       -0.20960
C         -0.00000        2.82837        0.13083
H         -0.89544        3.31095       -0.25968
H          0.89544        3.31095       -0.25968
H         -0.00000        2.84779        1.22125
C          2.53111       -1.42835        0.15757
H          2.57811       -2.45704       -0.21147
H          2.53959       -1.45915        1.25283
H          3.43089       -0.90284       -0.17723
H         -1.28934       -0.71063       -1.44589
H          1.28934       -0.71063       -1.44589
H         -0.00000        1.38800       -1.33106
