23
id_1191_cb.log	Energy: -254354.5041981
C          0.10746        2.34096       -0.36181
H         -0.82025        2.31746       -0.93877
H          0.83891        2.95125       -0.89871
H         -0.10683        2.85114        0.58439
C          0.65436        0.95378       -0.14081
C          2.03360        0.78478       -0.00857
H          2.66715        1.66762       -0.05312
C          2.61338       -0.47171        0.15269
H          3.69053       -0.56941        0.24494
C          1.79400       -1.59440        0.17399
H          2.22083       -2.58632        0.28890
C          0.41341       -1.45178        0.05282
H         -0.20835       -2.33958        0.07893
C         -0.17660       -0.18953       -0.09829
N         -1.58573       -0.03509       -0.24514
C         -2.31455       -1.25520       -0.56498
H         -3.34538       -0.98693       -0.81150
H         -2.34512       -1.97191        0.27103
H         -1.86820       -1.74717       -1.43233
C         -2.20652        0.60625        0.91624
H         -3.25097        0.83397        0.68537
H         -1.70156        1.53828        1.16948
H         -2.18187       -0.05163        1.79973
