20
id_1004_ca.log	Energy: -159039.5211379
C         -2.19174       -0.39314        0.07948
H         -3.10542       -0.31302       -0.51620
H         -2.44468       -0.15885        1.11941
H         -1.86768       -1.43903        0.04143
C         -1.11839        0.55641       -0.44652
H         -1.53359        1.56638       -0.53724
H         -0.82414        0.26316       -1.46425
C          0.12871        0.65200        0.44263
C          1.15250        1.62033       -0.15083
H          1.47278        1.30886       -1.15250
H          2.04077        1.69930        0.48365
H          0.71323        2.61733       -0.24994
C          0.74860       -0.70640        0.75443
H          0.05956       -1.36136        1.28824
H          1.65996       -0.59685        1.34347
N          1.14022       -1.44366       -0.49301
H          1.79006       -0.89716       -1.06989
H          0.32057       -1.66709       -1.06978
H         -0.18530        1.03753        1.42131
H          1.60423       -2.32873       -0.26175
