32
id_1151_cb.log	Energy: -328330.8175286
C          4.90999       -1.52786       -0.31205
H          4.51582       -2.19823       -1.08374
H          5.53943       -2.12146        0.35802
H          5.55019       -0.79022       -0.80832
C          3.77529       -0.84215        0.44250
H          4.19002       -0.19503        1.22617
H          3.16291       -1.59566        0.95435
C          2.88204       -0.00950       -0.47405
H          2.46220       -0.65729       -1.25651
H          3.49391        0.74294       -0.99099
C          1.74426        0.68661        0.26843
H          2.16224        1.34857        1.04071
H          1.14705       -0.07011        0.79658
C          0.83850        1.49536       -0.65723
H          0.36127        0.81979       -1.37883
H          1.44136        2.20351       -1.24010
C         -0.22931        2.28783        0.09835
H         -0.86515        2.83525       -0.60395
H          0.25394        3.03878        0.73063
N         -1.07686        1.48745        0.98295
H         -0.56482        1.18752        1.80753
C         -1.81701        0.43081        0.44586
C         -2.11181       -0.68489        1.24826
H         -1.70892       -0.72672        2.25754
C         -2.90672       -1.71788        0.76736
H         -3.11847       -2.56760        1.41012
C         -3.42377       -1.67407       -0.52807
H         -4.04101       -2.48322       -0.90432
C         -3.12813       -0.57464       -1.33112
H         -3.51675       -0.52242       -2.34423
C         -2.33457        0.46814       -0.85913
H         -2.11971        1.31282       -1.50594
