18
id_124_cb.log	Energy: -520253.5125979
C          0.07105        2.71443       -0.03887
H          0.09836        3.79845       -0.05454
C         -1.14693        2.04412       -0.01396
H         -2.07850        2.60059       -0.01455
C         -1.21186        0.64689       -0.00696
C         -0.01513       -0.05803        0.00506
C          1.20862        0.61141        0.00089
C          1.26321        1.99727       -0.03188
H          2.22602        2.49533       -0.02415
N          2.47242       -0.12233        0.08703
O          2.44986       -1.24424        0.56802
O          3.48059        0.43318       -0.31116
N         -0.05609       -1.53404       -0.00093
O          0.28101       -2.09787       -1.02339
O         -0.41978       -2.08288        1.01909
C         -2.57180       -0.05217       -0.06890
O         -2.60285       -1.16324       -0.65127
O         -3.53173        0.56464        0.45099
