17
id_119_ca.log	Energy: -134388.7711504
C          1.26048        0.86080       -0.25549
H          2.15610        0.26758       -0.04486
H          1.26313        1.75032        0.38261
H          1.29546        1.18272       -1.29935
C         -0.00000        0.03831       -0.03278
C         -0.00001       -1.23794       -0.86084
H         -0.00000       -0.97383       -1.92141
H         -0.89143       -1.83824       -0.65265
H          0.89141       -1.83825       -0.65264
C         -1.26046        0.86082       -0.25550
H         -1.26310        1.75033        0.38260
H         -2.15609        0.26762       -0.04487
H         -1.29543        1.18274       -1.29936
N         -0.00001       -0.38165        1.42291
H          0.83078       -0.94440        1.64375
H         -0.83080       -0.94439        1.64374
H         -0.00001        0.43872        2.04159
