22
id_1139_ca.log	Energy: -277173.4427851
C          3.64224       -0.05154       -0.00001
H          3.74893        0.57494       -0.88953
H          4.44267       -0.79566       -0.00002
H          3.74895        0.57492        0.88953
C          2.30356       -0.75107       -0.00000
H          2.17730       -1.37662        0.89035
H          2.17729       -1.37662       -0.89035
O          1.29272        0.26807        0.00001
C         -0.00021       -0.13112        0.00000
C         -0.45443       -1.44908        0.00000
H          0.24849       -2.27342        0.00001
C         -1.82732       -1.69877        0.00000
H         -2.17055       -2.72818       -0.00000
C         -2.75361       -0.66068       -0.00000
H         -3.81715       -0.86975       -0.00001
C         -2.30505        0.65932       -0.00000
H         -2.99927        1.49458       -0.00001
C         -0.94495        0.89947        0.00000
N         -0.42685        2.26823        0.00000
H          0.16043        2.45050       -0.82589
H         -1.19278        2.95338       -0.00001
H          0.16042        2.45051        0.82590
