18
id_1880_ca.log	Energy: -493719.8835956
C         -2.98430       -0.84124       -0.00000
H         -3.45770       -0.39939        0.88411
H         -3.19177       -1.91248        0.00000
H         -3.45770       -0.39939       -0.88412
C         -1.50183       -0.59575        0.00000
C         -0.57519       -1.63926        0.00000
H         -0.93799       -2.66229        0.00000
C          0.79632       -1.40193        0.00000
H          1.49876       -2.22822       -0.00000
C          1.25580       -0.09121       -0.00000
C          0.37342        0.98234        0.00000
H          0.72982        2.00715        0.00000
C         -0.98179        0.69816        0.00000
N         -1.92639        1.82279        0.00000
H         -1.43789        2.72819       -0.00001
H         -2.53899        1.80452       -0.82851
Cl         2.97192        0.22536       -0.00000
H         -2.53899        1.80452        0.82851
