24
id_1962_cb.log	Energy: -301540.3588480
C          2.54017        1.06053        0.00000
H          3.56876        0.70114       -0.00000
H          2.35098        1.64622        0.89930
H          2.35097        1.64623       -0.89929
N          1.65065       -0.14475       -0.00000
C          1.98155       -0.94759       -1.22628
H          1.41896       -1.87908       -1.21138
H          3.05220       -1.15530       -1.21163
H          1.71670       -0.35322       -2.10126
C          1.98156       -0.94759        1.22628
H          1.71671       -0.35322        2.10126
H          3.05221       -1.15531        1.21162
H          1.41896       -1.87908        1.21138
C          0.19100        0.20771        0.00000
C         -0.21502        1.53900        0.00000
H          0.47943        2.36742       -0.00000
C         -1.59461        1.78962       -0.00000
H         -1.93491        2.82199       -0.00000
C         -2.52490        0.76482        0.00000
H         -3.58946        0.98704        0.00000
C         -2.12256       -0.60322        0.00000
C         -0.71976       -0.84326        0.00000
H         -0.39402       -1.87918       -0.00000
O         -2.98331       -1.57782       -0.00000
