17
id_117_cb.log	Energy: -181279.8581368
C          1.67531       -0.77383       -0.39172
H          2.56648       -0.34326        0.07631
H          1.80355       -0.73416       -1.47779
H          1.59364       -1.82194       -0.08659
C          0.43457       -0.00225        0.02708
C          0.55824        1.47318       -0.35275
H          1.44779        1.90508        0.11665
H         -0.31407        2.03926       -0.00846
H          0.64404        1.59365       -1.43774
C         -0.82096       -0.62549       -0.59227
H         -0.82152       -1.69445       -0.35696
H         -0.78213       -0.52210       -1.68527
N         -2.01526       -0.02919        0.01756
H         -2.81743       -0.62615       -0.16917
H         -2.21530        0.85758       -0.44151
O          0.31821       -0.11822        1.44862
H         -0.62676        0.06699        1.61668
