25
id_1582_cb.log	Energy: -301684.9441130
C         -3.97056        0.11948        0.12735
H         -4.42884        1.08262        0.34705
H         -4.41846       -0.31575       -0.76960
H         -4.13853       -0.57309        0.95651
C         -2.49637        0.29595       -0.08086
O         -1.89840        1.35072        0.01053
O         -1.89945       -0.86467       -0.38753
C         -0.47319       -0.82377       -0.59816
H         -0.23136        0.06022       -1.19071
H         -0.25141       -1.71792       -1.18447
C          0.26624       -0.84205        0.72782
H         -0.01751        0.03575        1.31726
H         -0.04774       -1.72493        1.29464
C          1.77886       -0.90601        0.54539
H          2.04982       -1.87631        0.11295
H          2.25354       -0.85453        1.54331
N          2.31895        0.13520       -0.33261
C          1.99214        1.45932        0.18524
H          0.91518        1.64236        0.13403
H          2.31845        1.58960        1.23293
H          2.49030        2.21946       -0.42276
C          3.76874       -0.01096       -0.37952
H          4.23132        0.11206        0.61592
H          4.03160       -1.00390       -0.75579
H          4.19857        0.73779       -1.05063
