31
id_1285_cb.log	Energy: -398541.6698424
C         -4.78306        0.04291       -0.04709
H         -5.85314        0.22110       -0.06562
C         -3.92432        0.79710       -0.84221
H         -4.32404        1.57332       -1.48853
C         -2.54772        0.58095       -0.82195
H         -1.90393        1.18971       -1.44788
C         -2.00050       -0.41493        0.00184
C         -2.87136       -1.17011        0.80639
H         -2.45473       -1.93932        1.45203
C         -4.24076       -0.94273        0.77955
H         -4.88970       -1.54029        1.41336
N         -0.63625       -0.71799        0.00908
H         -0.35651       -1.18240        0.86990
C          0.32856        0.30022       -0.37831
C          0.35437        1.58324        0.48668
H         -0.38854        2.32190        0.17739
H          0.13893        1.29179        1.52180
C          1.80304        2.09845        0.38616
H          2.12282        2.65566        1.27105
H          1.91791        2.76446       -0.47828
C          2.59411        0.82869        0.16913
C          1.75280       -0.19992       -0.26331
C          2.25344       -1.46830       -0.53304
H          1.59464       -2.26634       -0.86386
C          3.61984       -1.70143       -0.36201
H          4.02763       -2.68818       -0.55959
C          4.46391       -0.67570        0.06643
H          5.52363       -0.87155        0.20012
C          3.95570        0.59786        0.33286
H          4.61425        1.39233        0.67381
H          0.13620        0.56602       -1.42599
