26
id_1344_cb.log	Energy: -231964.3387588
C         -2.51438       -0.72673        0.77135
H         -3.57380       -0.95742        0.62174
H         -2.45519        0.18516        1.37428
H         -2.07422       -1.54556        1.34870
C         -1.83260       -0.55606       -0.58738
H         -2.33028        0.24635       -1.14056
H         -1.97702       -1.46899       -1.17593
N         -0.38937       -0.28506       -0.57554
C          0.35267       -1.45165       -0.08778
H          0.14990       -1.64296        0.98212
H          0.00761       -2.33046       -0.64326
C          1.85433       -1.26717       -0.26756
H          2.37795       -2.15790        0.09607
H          2.07856       -1.16465       -1.33653
C          2.31655       -0.01864        0.47916
H          3.38045        0.17342        0.30394
H          2.19065       -0.18071        1.55847
C          1.47424        1.18170        0.05418
H          1.67704        1.42475       -0.99786
H          1.73456        2.06438        0.64926
C         -0.02555        0.91027        0.20675
C         -0.82408        2.13650       -0.22033
H         -1.88648        2.05419        0.02560
H         -0.73132        2.29750       -1.30034
H         -0.43318        3.02186        0.29055
H         -0.21663        0.72721        1.28221
