28
id_1438_cb.log	Energy: -384090.7503275
C         -3.88451       -0.51696        0.26598
H         -4.90231       -0.85808        0.42787
C         -3.30980        0.40312        1.14150
H         -3.87701        0.77932        1.98696
C         -2.00838        0.84738        0.92732
H         -1.55732        1.57673        1.59333
C         -1.26622        0.35288       -0.14768
C         -1.84660       -0.56516       -1.02791
H         -1.28140       -0.93369       -1.87929
C         -3.15489       -0.99386       -0.82234
H         -3.60538       -1.69891       -1.51369
C          0.10489        0.92157       -0.36922
O          0.27670        2.14052       -0.23932
N          1.10339        0.08609       -0.76402
C          1.17283       -1.31867       -0.33680
H          0.17311       -1.72487       -0.19303
H          1.66465       -1.88775       -1.13350
C          1.97712       -1.41831        0.95923
H          2.07287       -2.46926        1.24535
H          1.41882       -0.90366        1.75148
N          3.31309       -0.82007        0.87977
H          3.83677       -1.35473        0.18365
C          3.22066        0.55636        0.37813
H          2.71834        1.16590        1.13853
H          4.22936        0.95483        0.24142
C          2.44204        0.66224       -0.93019
H          2.95145        0.08832       -1.71254
H          2.34630        1.69605       -1.26033
