25
id_1579_cb.log	Energy: -301684.5332085
C         -3.73642        0.94228       -0.15076
H         -4.27177        0.20557        0.45421
H         -4.43391        1.35804       -0.88155
H         -3.40892        1.74985        0.50932
C         -2.55161        0.30566       -0.85926
H         -2.01212        1.03296       -1.47615
H         -2.86715       -0.49560       -1.53600
C         -1.55632       -0.28274        0.10479
O         -1.64684       -0.24239        1.31587
O         -0.53725       -0.87363       -0.53548
C          0.50424       -1.44138        0.27832
H          0.05699       -1.99691        1.10584
H          1.01411       -2.14468       -0.38065
C          1.45032       -0.38843        0.82684
H          2.26626       -0.93699        1.33534
H          0.93307        0.20172        1.58913
N          1.97807        0.53203       -0.17824
C          2.69676       -0.19675       -1.21796
H          3.47254       -0.86378       -0.80173
H          3.18418        0.51660       -1.88763
H          2.00733       -0.79738       -1.81654
C          2.90204        1.44477        0.48599
H          3.75861        0.91451        0.93815
H          2.38224        1.98963        1.27910
H          3.29065        2.16999       -0.23403
