23
id_1306_ca.log	Energy: -405330.7902549
C         -3.36966       -0.85610        0.00000
H         -4.38211       -1.24377        0.00000
C         -2.29696       -1.70677        0.00002
H         -2.43986       -2.78290        0.00004
C         -0.97004       -1.19983        0.00002
C          0.14846       -2.07467        0.00004
H         -0.03087       -3.14505        0.00006
C          1.42808       -1.58879        0.00003
H          2.28774       -2.24666        0.00004
C          1.60664       -0.19111        0.00001
C          0.57178        0.70581       -0.00000
H          0.78877        1.76782       -0.00002
C         -0.75273        0.20839       -0.00000
C         -1.90178        1.04465       -0.00002
C         -3.17158        0.54668       -0.00002
H         -4.02328        1.22002       -0.00004
N         -1.71149        2.50030       -0.00004
H         -1.19087        2.82096       -0.82960
H         -2.61829        2.98683       -0.00007
N          2.97435        0.33488        0.00000
O          3.13196        1.54496        0.00018
O          3.89383       -0.46673       -0.00019
H         -1.19090        2.82099        0.82952
