14
id_1462_cb.log	Energy: -284559.3083880
C         -0.56485        2.74575        0.00000
H         -0.03697        3.69916        0.00000
H         -1.19144        2.67008        0.89568
H         -1.19144        2.67008       -0.89568
O          0.43952        1.73888        0.00000
C          0.00000        0.44348        0.00000
C         -1.31033        0.04518        0.00000
H         -2.12316        0.76435        0.00000
N         -1.67280       -1.26962        0.00000
C         -0.66471       -2.12666        0.00000
H         -0.93067       -3.18170        0.00000
N          0.64577       -1.86002        0.00000
C          1.03958       -0.56073        0.00000
O          2.26857       -0.23846        0.00000
