14
id_1841_cb.log	Energy: -1045545.8923614
C          0.00044        1.54557       -0.00196
H          0.17350        2.61737       -0.00002
C         -1.31883        1.07047       -0.00352
C         -1.49466       -0.32348       -0.00050
C         -0.42260       -1.20109        0.00424
H         -0.59640       -2.27175        0.00884
C          0.87684       -0.70779        0.00125
C          1.07789        0.67344       -0.00279
Cl         2.68433        1.33844       -0.00089
Cl         2.20738       -1.82598        0.00365
Cl        -3.11526       -0.97127       -0.00433
N         -2.38267        1.94426       -0.07365
H         -3.24947        1.61149        0.33387
H         -2.16300        2.89015        0.21923
