31
id_1122_ca.log	Energy: -535848.4995303
C         -4.04685       -0.21830       -1.47869
H         -4.33298       -0.08341       -2.52459
H         -4.32656        0.68686       -0.93020
H         -4.60358       -1.06969       -1.08327
C         -2.54923       -0.43376       -1.43547
H         -2.02012        0.35701       -1.96986
H         -2.24836       -1.40474       -1.83370
N         -2.01629       -0.37765       -0.01040
C         -2.59739       -1.45129        0.88626
H         -3.66763       -1.24640        0.90095
H         -2.43288       -2.41210        0.39632
C         -2.01915       -1.38128        2.28430
H         -2.13415       -0.37621        2.70150
H         -0.96387       -1.66177        2.31403
H         -2.57436       -2.07880        2.91565
C         -0.55261       -0.34745       -0.04221
C          0.12389       -1.54459       -0.24009
H         -0.42970       -2.47018       -0.35069
C          1.51107       -1.57082       -0.29580
H          2.04138       -2.50177       -0.45387
C          2.20135       -0.37904       -0.14422
C          1.56807        0.83376        0.04823
H          2.12604        1.75562        0.15313
C          0.18255        0.83901        0.08725
N         -0.45059        2.15434        0.24295
O          0.24363        3.07786        0.60630
O         -1.64257        2.25659       -0.01987
N          3.66898       -0.39531       -0.19989
O          4.21491       -1.46935       -0.37142
O          4.25409        0.66418       -0.07143
H         -2.33856        0.52432        0.37005
