27
id_1535_ca.log	Energy: -1563183.1366247
C         -2.17688        0.94110        0.99687
H         -1.99088        1.84397        1.57107
C         -3.32201        0.82993        0.21474
C         -3.57911       -0.30874       -0.53504
H         -4.46845       -0.39460       -1.15046
C         -2.65941       -1.34964       -0.47646
C         -1.50660       -1.26991        0.30918
C         -1.25755       -0.10315        1.04796
C         -0.00000        0.00000        1.88449
H          0.08547       -0.87999        2.52959
H         -0.08547        0.87999        2.52959
C          1.25755        0.10315        1.04796
C          2.17688       -0.94110        0.99687
H          1.99088       -1.84397        1.57107
C          3.32201       -0.82993        0.21474
C          3.57911        0.30874       -0.53504
H          4.46845        0.39460       -1.15046
C          2.65941        1.34964       -0.47646
C          1.50660        1.26991        0.30918
O          0.59939        2.27751        0.40279
H          0.88695        3.05435       -0.10863
Cl         2.94674        2.79883       -1.40655
Cl         4.46269       -2.15436        0.16768
O         -0.59939       -2.27751        0.40279
H         -0.88695       -3.05435       -0.10863
Cl        -2.94674       -2.79883       -1.40655
Cl        -4.46269        2.15436        0.16768
