20
id_1829_cb.log	Energy: -583177.1952939
C          2.90202       -1.91047       -0.02364
H          3.99135       -1.82727       -0.03599
H          2.58091       -2.43640       -0.92489
H          2.60391       -2.46294        0.86950
S          2.31985       -0.19656        0.00833
C          0.55765       -0.40413        0.00530
C         -0.02740       -1.68258        0.00839
H          0.59984       -2.56433        0.01775
C         -1.39756       -1.87306        0.00237
H         -1.79255       -2.88514        0.00598
C         -2.28942       -0.78830       -0.00679
C         -1.74222        0.48996       -0.00549
H         -2.38446        1.36222       -0.00627
C         -0.35848        0.66465       -0.00145
N          0.09691        2.04592        0.00064
O         -0.73305        2.94505       -0.03489
O          1.30111        2.26140        0.03789
N         -3.66139       -0.98766       -0.07962
H         -4.20844       -0.21022        0.27458
H         -3.96875       -1.86683        0.32268
