20
id_1867_cb.log	Energy: -323347.1589347
C          0.50871       -1.23659        0.49283
H          0.05650       -2.20480        0.69352
C          1.83706       -1.17325        0.08737
H          2.41828       -2.08453       -0.02675
C          2.44284        0.06318       -0.17702
C          1.67916        1.22961       -0.01927
H          2.13720        2.19515       -0.21754
C          0.35332        1.15395        0.38773
H         -0.22400        2.06848        0.50410
C         -0.25124       -0.07730        0.65551
C         -1.70955       -0.14125        1.06080
H         -1.95587        0.64346        1.77880
H         -1.94250       -1.11689        1.49551
C         -2.57039        0.06942       -0.15837
O         -3.15009        1.09947       -0.43596
O         -2.59183       -1.00977       -0.95653
H         -3.11889       -0.79309       -1.74964
N          3.75447        0.12869       -0.64617
H          4.21747        1.00589       -0.43290
H          4.32642       -0.65875       -0.35952
