47
id_179_ca.log	Energy: -569159.6690943
C          0.46179       -1.25097       -3.29206
H          1.29629       -0.95675       -3.92732
H         -0.42070       -0.65913       -3.53178
H          0.25018       -2.31499       -3.40314
N          0.84273       -1.00573       -1.87110
C          2.04302       -1.83998       -1.48345
H          1.68331       -2.86663       -1.38302
H          2.73825       -1.77871       -2.32316
C          2.65930       -1.31378       -0.21738
C          2.43582       -1.94322        1.00897
H          1.85552       -2.86193        1.04153
C          2.94577       -1.39170        2.18289
H          2.76626       -1.88406        3.13336
C          3.68336       -0.20977        2.13431
H          4.07857        0.22128        3.04888
C          3.92240        0.41423        0.90980
H          4.50353        1.33013        0.86892
C          3.41251       -0.13740       -0.26198
H          3.59082        0.34937       -1.21849
C         -0.31580       -1.22801       -0.93758
H         -0.82382       -2.13117       -1.28388
H          0.09726       -1.42158        0.05361
C         -1.27081       -0.03260       -0.90683
H         -1.67035        0.12044       -1.91490
C         -0.58952        1.26312       -0.48385
C         -0.95731        2.45451       -1.11799
H         -1.69987        2.42483       -1.91178
C         -0.38876        3.66857       -0.74311
H         -0.68747        4.58246       -1.24741
C          0.56660        3.70816        0.27154
H          1.01561        4.65263        0.56265
C          0.94682        2.52737        0.90450
H          1.69564        2.54463        1.69119
C          0.37329        1.31212        0.53150
H          0.69222        0.40343        1.03866
C         -2.45262       -0.37379       -0.00843
C         -2.27157       -0.64668        1.35164
H         -1.27527       -0.61116        1.78607
C         -3.36137       -0.95837        2.16002
H         -3.20658       -1.16849        3.21391
C         -4.64691       -0.99780        1.62063
H         -5.49616       -1.23830        2.25260
C         -4.83495       -0.72589        0.26787
H         -5.83205       -0.75306       -0.16090
C         -3.74222       -0.41767       -0.54120
H         -3.89054       -0.20729       -1.59725
H          1.12725       -0.01845       -1.78949
