18
id_1909_cb.log	Energy: -335550.4666714
C         -1.66925       -2.59718        0.00000
H         -2.75140       -2.75131        0.00000
H         -1.24937       -3.09583        0.88085
H         -1.24937       -3.09583       -0.88085
C         -1.34577       -1.12874        0.00000
C         -2.33338       -0.14856        0.00000
H         -3.37592       -0.45891        0.00000
C         -2.01259        1.21406        0.00000
H         -2.80125        1.96018        0.00000
C         -0.67966        1.60049        0.00000
H         -0.41134        2.65252        0.00000
C          0.34668        0.64647        0.00000
C          0.00000       -0.71771        0.00000
O          0.94852       -1.69405        0.00000
H          1.82430       -1.20334        0.00000
C          1.79090        1.08559        0.00000
O          2.67870        0.16531        0.00000
O          2.05187        2.31199        0.00000
