18
id_1662_cb.log	Energy: -262915.0561766
C         -0.53137        1.20632       -0.25797
H         -1.07253        2.14633       -0.32619
C          0.84697        1.21698       -0.09149
H          1.39437        2.15157       -0.02886
C          1.53386        0.00000       -0.00791
C          0.84696       -1.21698       -0.09150
H          1.39436       -2.15157       -0.02889
C         -0.53137       -1.20630       -0.25799
H         -1.07255       -2.14631       -0.32621
C         -1.23478        0.00001       -0.34400
C         -2.74190        0.00001       -0.45120
H         -3.06831       -0.88204       -1.00852
H         -3.06831        0.88209       -1.00847
N         -3.42753       -0.00002        0.84865
H         -3.09224        0.80832        1.37364
H         -3.09224       -0.80839        1.37360
C          2.95974       -0.00001        0.16102
N          4.11163       -0.00001        0.29795
