15
id_1424_cb.log	Energy: -180517.8188279
C         -1.19609        0.71767       -0.22709
H         -2.08767        1.20690        0.17495
H         -1.25046        0.76489       -1.32078
C         -1.17061       -0.74056        0.20276
H         -2.02569       -1.28968       -0.20112
H         -1.19733       -0.80542        1.30246
O          0.00000       -1.39098       -0.28038
C          1.17061       -0.74056        0.20276
H          1.19734       -0.80542        1.30246
H          2.02569       -1.28968       -0.20112
C          1.19609        0.71767       -0.22709
H          1.25046        0.76489       -1.32078
H          2.08766        1.20691        0.17495
N         -0.00000        1.45698        0.20019
H         -0.00000        1.45029        1.22266
