14
id_1148_cb.log	Energy: -242647.8850738
C         -0.11664        1.77499        0.00397
H         -0.16162        2.85974        0.01185
C          1.12214        1.14556       -0.00281
H          2.03683        1.73117       -0.00205
C          1.20706       -0.25665       -0.00994
C          0.02326       -1.00772       -0.00708
H          0.04549       -2.09301       -0.00891
C         -1.18876       -0.34028       -0.00040
C         -1.30274        1.04099        0.00452
H         -2.27966        1.50993        0.01142
F         -2.31647       -1.08099        0.00486
N          2.44151       -0.89197       -0.08213
H          2.44387       -1.83353        0.29507
H          3.20677       -0.34292        0.29422
