15
id_148_ca.log	Energy: -3407552.7265058
C         -1.23254        1.67552       -0.00866
H         -2.10540        2.31727       -0.01297
C          0.04066        2.23212       -0.00976
H          0.16678        3.31041       -0.01493
C          1.15307        1.40540       -0.00342
C          1.00997        0.02134        0.00026
C         -0.25621       -0.54831        0.00063
H         -0.37066       -1.62589        0.00316
C         -1.36400        0.29213       -0.00194
Br        -3.08861       -0.47568        0.00246
Br         2.52635       -1.09849       -0.00201
N          2.48531        2.01095        0.01331
H          3.09601        1.65046       -0.73352
H          2.42061        3.03037       -0.12544
H          2.96900        1.86745        0.91229
