16
id_1003_cb.log	Energy: -134089.8970907
C         -2.05647       -0.04402        0.08604
H         -2.16401        0.11417        1.16535
H         -2.89874       -0.65743       -0.24757
H         -2.14540        0.92901       -0.40805
C         -0.72475       -0.71753       -0.23518
H         -0.60478       -0.80893       -1.32280
H         -0.72074       -1.73476        0.17484
C          0.48547        0.02640        0.32401
C          1.77654       -0.70574       -0.00970
H          2.64453       -0.17876        0.40174
H          1.90301       -0.77404       -1.09600
H          1.76778       -1.71935        0.40286
N          0.54788        1.38041       -0.24722
H          1.36672        1.84508        0.14536
H         -0.24740        1.91419        0.10205
H          0.37916        0.05332        1.42174
