14
id_1769_cb.log	Energy: -531029.2985823
C          1.75783        1.07927       -0.00298
H          2.68668        1.64156       -0.00089
C          0.54292        1.75199        0.00184
H          0.49841        2.83597        0.00953
C         -0.64071        1.03248        0.00006
C         -0.61283       -0.35562       -0.00349
C          0.59639       -1.03758       -0.00758
H          0.60384       -2.12317       -0.00896
C          1.80182       -0.32293       -0.00961
N          3.01945       -0.99682       -0.08306
H          3.79299       -0.47166        0.31122
H          2.98764       -1.93399        0.30463
Cl        -2.11715       -1.23161        0.00250
F         -1.82073        1.67565        0.00600
