15
id_1453_cb.log	Energy: -513575.0991661
C          2.69928       -1.57944        0.00001
H          3.78235       -1.69494        0.00001
H          2.29176       -2.07222       -0.88736
H          2.29176       -2.07219        0.88740
N          2.40014       -0.16272       -0.00001
H          3.15407        0.50971        0.00001
C          1.15144        0.33397       -0.00001
N          1.02529        1.67986       -0.00000
C         -0.21752        2.14444        0.00000
H         -0.32818        3.22583        0.00001
C         -1.35110        1.33380        0.00000
H         -2.35604        1.73171        0.00001
C         -1.07332       -0.02245       -0.00000
N          0.13084       -0.55189       -0.00001
Cl        -2.41073       -1.15568       -0.00000
