28
id_1467_ca.log	Energy: -324097.7408545
C          4.55616       -1.41598        0.18490
H          4.01610       -2.29113       -0.19269
H          5.28100       -1.76355        0.92728
H          5.11411       -0.98248       -0.65224
C          3.59029       -0.39622        0.77945
H          4.15206        0.46011        1.17384
H          3.06092       -0.84000        1.63223
C          2.56827        0.10249       -0.23942
H          2.00335       -0.75487       -0.63033
H          3.09368        0.54755       -1.09582
C          1.60727        1.13109        0.35025
H          2.17435        1.99028        0.72870
H          1.07255        0.69892        1.20548
C          0.59247        1.65724       -0.65936
H          1.10031        2.06052       -1.53822
H         -0.01579        2.45243       -0.22736
N         -0.31204        0.61589       -1.15210
H         -0.00656        0.05983       -1.94413
C         -1.37632        0.20066       -0.47634
N         -2.09536       -0.85049       -0.96571
C         -3.20516       -1.30823       -0.34422
H         -3.69947       -2.14761       -0.81660
C         -3.62234       -0.70230        0.80662
H         -4.50298       -1.03612        1.33658
C         -2.84260        0.37422        1.26185
H         -3.12331        0.89643        2.17239
N         -1.75572        0.82010        0.65549
H         -1.78676       -1.30662       -1.82530
