15
id_1918_ca.log	Energy: -383685.6768590
C         -1.84431       -0.92581       -0.37416
H         -2.88089       -0.62414       -0.55301
H         -1.79831       -1.40523        0.61044
H         -1.57178       -1.66642       -1.13414
C         -0.93941        0.30769       -0.42254
H         -1.04009        0.79391       -1.40225
C         -1.26980        1.31255        0.68356
H         -2.31561        1.62246        0.59063
H         -0.64183        2.20615        0.62205
H         -1.13788        0.86137        1.67317
P          0.80224       -0.17186       -0.33281
O          1.77215        0.97746       -0.33457
O          0.99639       -1.02794        1.03024
H          0.50909       -1.87277        1.05944
H          1.01648       -1.10030       -1.36065
