35
id_1238_ca.log	Energy: -422980.9901096
C         -2.77860       -2.00402        0.83654
H         -1.78857       -1.98463        1.30201
H         -2.84643       -2.89509        0.20739
H         -3.53669       -2.07689        1.62184
C         -3.00869       -0.76922       -0.01710
C         -2.04516       -0.64805       -1.20732
H         -2.21816       -1.53733       -1.82139
H         -2.32261        0.21848       -1.81566
C         -0.58906       -0.56720       -0.81350
C          0.17662       -1.71427       -0.64513
H         -0.26379       -2.68978       -0.83198
C          1.51389       -1.63346       -0.24206
H          2.09249       -2.54190       -0.12176
C          2.09603       -0.39689       -0.00037
C          1.33068        0.77766       -0.17153
C          0.00602        0.68486       -0.57718
H         -0.57331        1.58880       -0.73756
O          1.98783        1.94532        0.07923
C          1.24520        3.14658       -0.07729
H          0.38082        3.16418        0.59543
H          0.90671        3.26724       -1.11172
H          1.92718        3.95619        0.18103
O          3.38679       -0.20160        0.39403
C          4.18633       -1.36406        0.56280
H          5.16920       -1.00910        0.87184
H          4.27467       -1.91976       -0.37663
H          3.77117       -2.01730        1.33747
N         -2.89623        0.44183        0.87881
H         -1.90886        0.56237        1.14579
C         -3.41912        1.71316        0.30637
H         -2.83643        1.98243       -0.57239
H         -3.33170        2.48862        1.06599
H         -4.46336        1.55759        0.03790
H         -4.03574       -0.75145       -0.38969
H         -3.40472        0.24418        1.74884
