13
id_1532_cb.log	Energy: -250448.1104815
C         -1.21523        0.31686       -0.00000
H         -2.15445        0.86427       -0.00000
C         -1.21635       -1.06328       -0.00000
H         -2.15732       -1.60785       -0.00000
C          0.00003       -1.82070        0.00000
C          1.21639       -1.06326        0.00000
H          2.15737       -1.60780        0.00000
C          1.21524        0.31689        0.00000
H          2.15445        0.86430        0.00000
C         -0.00000        1.03099       -0.00000
C         -0.00004        2.45460       -0.00000
N         -0.00008        3.61978       -0.00000
O          0.00004       -3.11050        0.00000
