18
id_1495_cb.log	Energy: -288950.0425140
C         -2.83848        0.64929        0.00000
H         -3.92458        0.65336        0.00000
C         -2.12530        1.87606        0.00000
H         -2.67445        2.81405        0.00000
C         -0.74995        1.88880        0.00000
H         -0.20966        2.83331       -0.00000
C          0.00000        0.67417       -0.00000
C          1.41621        0.66191       -0.00000
H          1.95122        1.61059       -0.00000
C          2.15546       -0.53063       -0.00000
C          1.39094       -1.76026       -0.00000
H          1.94770       -2.69541       -0.00000
C          0.02229       -1.77054        0.00000
H         -0.51904       -2.71526        0.00000
C         -0.72526       -0.55701        0.00000
C         -2.14362       -0.53946        0.00000
H         -2.67441       -1.48977        0.00000
O          3.46120       -0.57060       -0.00000
