33
id_1562_ca.log	Energy: -281550.4972022
C         -1.96596        1.89392       -0.58145
H         -2.71575        1.49701       -1.27210
H         -1.05885        2.12139       -1.15425
H         -2.34240        2.84549       -0.19662
C         -1.69870        0.94409        0.58420
H         -2.61538        0.82991        1.17360
H         -0.95347        1.37648        1.25685
C         -1.28551       -0.48921        0.21330
C         -2.41109       -1.20619       -0.53416
H         -3.31324       -1.18949        0.08271
H         -2.14138       -2.25024       -0.72460
H         -2.63646       -0.72541       -1.49088
C         -0.90997       -1.27219        1.46241
H         -1.80686       -1.35818        2.08269
H         -0.14167       -0.75904        2.04664
H         -0.57016       -2.28213        1.21386
N         -0.12197       -0.47531       -0.78652
H         -0.40588        0.16335       -1.54134
C          1.34082       -0.14950       -0.44051
C          2.00908       -1.38373        0.15553
H          1.65324       -1.62954        1.15568
H          3.08435       -1.19622        0.21236
H          1.85121       -2.24558       -0.50082
C          1.98645        0.16884       -1.79425
H          1.52333        1.04801       -2.25433
H          1.89344       -0.68295       -2.47594
H          3.04735        0.37809       -1.63895
C          1.40891        1.08123        0.42833
H          0.96477        1.97628       -0.00719
C          2.03246        1.15153        1.60053
H          2.09391        2.09254        2.13865
H          2.50392        0.28952        2.06409
H         -0.09918       -1.40482       -1.22797
