22
id_191_cb.log	Energy: -405052.4549925
C          3.09829       -1.59617        0.00429
H          3.83389       -2.39402        0.00921
C          3.52461       -0.24847       -0.03210
H          4.58550       -0.02177       -0.06248
C          2.60757        0.77551       -0.03637
H          2.95891        1.80076       -0.08466
C          1.21686        0.50262       -0.00137
C          0.78740       -0.85553        0.01598
C          1.75905       -1.89148        0.02370
H          1.41488       -2.92154        0.04151
C         -0.59493       -1.16805        0.01415
H         -0.92655       -2.19915        0.01906
C         -1.48378       -0.12850       -0.00126
C         -1.10743        1.22734        0.00353
H         -1.86299        2.00364        0.01256
C          0.23300        1.55413        0.00733
N          0.63801        2.87865       -0.04757
H          1.48388        3.09054        0.46982
H         -0.10086        3.53326        0.18731
N         -2.91304       -0.43992       -0.00833
O         -3.70667        0.48859       -0.03881
O         -3.25650       -1.61250        0.01525
