33
id_103_ca.log	Energy: -422255.8624124
C         -2.75813       -0.88093        1.51806
H         -1.89984       -1.30890        2.03298
H         -3.57967       -1.59791        1.50094
H         -3.06765        0.05160        1.99073
N         -2.38339       -0.58114        0.09247
C         -3.62201       -0.12011       -0.61357
H         -3.99011        0.78655       -0.13383
H         -4.35904       -0.91704       -0.52019
H         -3.39254        0.05243       -1.66458
C         -1.91687       -1.84510       -0.57797
H         -1.06545       -2.24831       -0.03148
H         -1.63521       -1.60013       -1.60247
H         -2.74396       -2.55592       -0.56254
C         -1.28733        0.43345        0.05559
C         -1.43813        1.63437       -0.62627
H         -2.35352        1.89480       -1.14175
C         -0.36898        2.53456       -0.64711
H         -0.48371        3.47460       -1.17763
C          0.82507        2.23548       -0.00378
H          1.65366        2.93914       -0.03306
C          0.97056        1.02657        0.68672
C         -0.09538        0.12826        0.71380
H          0.03129       -0.80998        1.24781
C          2.28990        0.64753        1.31145
H          2.75561        1.52032        1.77772
H          2.13625       -0.11059        2.08536
C          3.27065        0.09708        0.25294
H          4.19075       -0.23237        0.74197
H          3.51341        0.87652       -0.47447
C          2.65615       -1.09753       -0.43124
O          2.12439       -0.91584       -1.65156
O          2.57460       -2.19855        0.08091
H          2.22860        0.00640       -1.94938
