16
id_1998_cb.log	Energy: -467076.3591983
C         -2.68913        1.23375        0.00000
H         -2.33591        1.75008        0.89554
H         -3.78166        1.23256        0.00001
H         -2.33591        1.75008       -0.89553
S         -2.19186       -0.50550       -0.00000
C         -0.41192       -0.42339       -0.00000
C          0.26470       -1.65484        0.00000
H         -0.28579       -2.59170        0.00000
C          1.65992       -1.64535        0.00000
H          2.19432       -2.59321        0.00000
C          2.38305       -0.45592        0.00000
H          3.47070       -0.47096        0.00001
C          1.72255        0.80302       -0.00000
C          0.29572        0.77574       -0.00000
H         -0.21727        1.73314       -0.00000
O          2.37650        1.93498       -0.00000
