17
id_1537_ca.log	Energy: -309385.3129449
C         -2.34217        1.06681        0.00000
H         -3.11708        1.82669        0.00001
C         -2.69968       -0.30174       -0.00000
H         -3.74971       -0.57842       -0.00000
C         -1.73300       -1.28003       -0.00000
H         -1.99451       -2.33383       -0.00000
C         -0.36295       -0.92487       -0.00000
C         -0.00765        0.44614       -0.00000
C         -1.01789        1.43828        0.00000
H         -0.76768        2.49505        0.00001
C          1.40067        0.70760       -0.00000
N          2.29803       -0.24738        0.00000
C          1.83103       -1.52196        0.00000
H          2.59602       -2.29276       -0.00000
N          0.58487       -1.91680       -0.00000
O          1.90386        1.95200        0.00000
H          1.21157        2.63518       -0.00003
