24
id_1952_ca.log	Energy: -230873.5357118
C          2.14006       -1.45721       -0.24380
H          1.58154       -2.12968       -0.90015
H          2.91134       -2.04452        0.26055
H          2.64019       -0.69856       -0.85136
C          1.25449       -0.83976        0.81904
H          1.81213       -0.16006        1.46434
H          0.79347       -1.60262        1.44866
N          0.11343       -0.04546        0.24185
C          0.54791        1.10679       -0.62231
H          0.95766        0.67874       -1.53902
H         -0.36151        1.65486       -0.87214
C          1.53718        2.01625        0.07928
H          1.67021        2.91179       -0.53230
H          2.51491        1.54538        0.20571
H          1.15956        2.32592        1.05884
C         -0.88681       -0.91952       -0.45537
H         -0.50101       -1.17241       -1.44413
H         -0.98111       -1.82652        0.14525
C         -2.22630       -0.21622       -0.54715
H         -2.95872       -0.93862       -0.92553
H         -2.18971        0.62587       -1.24531
O         -2.54867        0.22065        0.76467
H         -3.25699        0.87910        0.69841
H         -0.39593        0.36234        1.03971
