21
id_1373_cb.log	Energy: -360198.9564627
C          3.08690       -0.49492       -0.52916
H          4.03833       -0.84633       -0.91803
C          2.30064        0.37775       -1.27955
H          2.63699        0.70903       -2.25818
C          1.07803        0.83268       -0.77921
H          0.47603        1.51686       -1.37048
C          0.62954        0.42059        0.47767
C          1.42651       -0.45410        1.22655
H          1.08891       -0.77526        2.21036
C          2.64562       -0.91015        0.72951
H          3.25389       -1.58505        1.32526
C         -0.71093        0.86688        1.04371
C         -1.73742       -0.27598        0.99080
H         -2.67191        0.07653        1.44600
H         -1.37928       -1.12614        1.57680
C         -2.05521       -0.72961       -0.43542
O         -2.17906        0.17844       -1.31641
O         -2.19968       -1.96087       -0.65416
O         -1.21628        2.02721        0.39725
H         -1.63661        1.69510       -0.42717
H         -0.56337        1.13912        2.09412
