21
id_134_ca.log	Energy: -182940.2320541
C          2.68285        0.33648        0.16584
H          3.59337        0.05704       -0.36167
H          2.79110        0.16221        1.23564
H          2.43739        1.37936       -0.02934
N          1.56765       -0.51517       -0.33051
H          1.45325       -0.37590       -1.34258
C          0.25410       -0.24727        0.33846
H          0.44716       -0.35648        1.40846
C         -0.28523        1.15748        0.00385
H         -0.07560        1.85496        0.81718
H          0.20253        1.54896       -0.89551
C         -1.80365        0.96108       -0.22923
H         -2.40192        1.70881        0.29574
H         -2.02704        1.04922       -1.29656
C         -2.10374       -0.47146        0.23972
H         -2.99223       -0.89836       -0.23109
H         -2.25246       -0.49279        1.32528
C         -0.82339       -1.22918       -0.11487
H         -0.75943       -1.36427       -1.20240
H         -0.72881       -2.20594        0.36553
H          1.81350       -1.50335       -0.19773
