20
id_165_cb.log	Energy: -229704.5703287
C          2.57504        0.27090       -0.34951
H          3.58971        0.48080       -0.67376
C          1.77785        1.29146        0.16458
H          2.16902        2.30161        0.24191
C          0.47680        1.01812        0.58537
H         -0.14046        1.81583        0.99256
C         -0.04800       -0.27593        0.50035
C          0.76170       -1.29054       -0.02269
H          0.36519       -2.30085       -0.09569
C          2.06249       -1.02301       -0.44203
H          2.67810       -1.82493       -0.83882
C         -1.47462       -0.56319        0.89346
H         -1.79599        0.13740        1.67375
H         -1.55110       -1.57609        1.30504
C         -2.43484       -0.44068       -0.30041
H         -3.43904       -0.72813        0.02547
H         -2.13422       -1.15438       -1.07507
N         -2.51373        0.88822       -0.90844
H         -1.57313        1.15587       -1.20083
H         -2.75050        1.55257       -0.17021
