40
id_1784_cb.log	Energy: -472011.9725755
C          7.49086       -0.39538        0.31895
H          7.60072        0.18025        1.24428
H          7.73191        0.26885       -0.51791
H          8.23108       -1.20080        0.33358
C          6.07376       -0.94352        0.18593
H          5.86046       -1.62498        1.01882
H          5.99084       -1.53677       -0.73316
C          5.02836        0.16904        0.16404
H          5.22426        0.84891       -0.67423
H          5.09404        0.76128        1.08502
C          3.62363       -0.38419        0.03266
H          3.38615       -1.04757        0.87514
H          3.51768       -0.96131       -0.89585
O          2.71944        0.71660        0.01927
C          1.38246        0.43202       -0.08982
C          0.85791       -0.85047       -0.18870
H          1.49227       -1.72791       -0.18508
C         -0.53280       -1.01007       -0.29353
H         -0.93922       -2.01220       -0.36873
C         -1.37628        0.08706       -0.30405
C         -0.84292        1.39306       -0.19883
C          0.53304        1.54594       -0.09265
H          0.96305        2.53988       -0.00721
N         -1.70717        2.48587       -0.26777
H         -2.63463        2.27588        0.08695
H         -1.32849        3.31619        0.17580
O         -2.74303        0.03435       -0.40675
C         -3.35099       -1.25459       -0.40343
H         -3.00774       -1.82324       -1.27688
H         -3.04804       -1.79785        0.50224
C         -4.85374       -1.05849       -0.43580
H         -5.12256       -0.50962       -1.34716
H         -5.31811       -2.04929       -0.51043
C         -5.39321       -0.32719        0.79176
H         -5.09712       -0.87725        1.69419
H         -4.92748        0.66277        0.86076
C         -6.91059       -0.18022        0.74888
H         -7.28760        0.34506        1.63147
H         -7.39702       -1.16085        0.70704
H         -7.22248        0.38390       -0.13685
