15
id_1450_cb.log	Energy: -1838627.8673964
C         -4.20238       -0.68694        0.02280
H         -5.21769       -0.29248        0.01284
H         -4.06370       -1.28274        0.93019
H         -4.07123       -1.34182       -0.84292
N         -3.28570        0.43259       -0.02381
H         -3.64504        1.37514        0.02719
C         -1.94675        0.29430       -0.01010
N         -1.22049        1.43754       -0.00032
C          0.09576        1.29720        0.00346
H          0.69053        2.20760        0.01175
C          0.70917        0.04763       -0.00223
C         -0.12060       -1.06266       -0.00987
H          0.29355       -2.06829       -0.01266
N         -1.44632       -0.95768       -0.01311
Br         2.58485       -0.12348        0.00314
