19
id_1827_ca.log	Energy: -455177.5044143
C         -2.50196       -0.30879        1.08765
H         -2.12703       -1.11935        1.71409
H         -3.58752       -0.38839        1.00010
H         -2.24904        0.65754        1.52822
S         -1.83466       -0.46827       -0.60235
C         -0.09038       -0.34693       -0.25003
C          0.69785       -1.49571       -0.16617
H          0.22871       -2.46509       -0.29922
C          2.06462       -1.40161        0.08405
H          2.66151       -2.30529        0.14632
C          2.66301       -0.15605        0.25191
H          3.72736       -0.07995        0.44541
C          1.89644        1.00320        0.16680
H          2.34532        1.98461        0.28804
C          0.53817        0.88959       -0.08409
N         -0.26284        2.11672       -0.16689
H         -1.01197        2.02751       -0.86917
H          0.31864        2.92635       -0.42015
H         -0.71812        2.33521        0.73158
