19
id_1546_cb.log	Energy: -333756.5617216
C         -3.13207       -1.01694        0.00000
H         -3.75746       -0.12191        0.00000
H         -3.37124       -1.62494        0.87968
H         -3.37124       -1.62494       -0.87968
C         -1.68471       -0.63867        0.00000
C         -0.68672       -1.73468        0.00000
N          0.61297       -1.43669        0.00000
C          0.96635       -0.11517        0.00000
C          2.33581        0.24866        0.00000
H          3.07943       -0.54431        0.00000
C          2.71461        1.57611        0.00000
H          3.76999        1.83464        0.00000
C          1.74429        2.60142        0.00000
H          2.05226        3.64258        0.00000
C          0.40357        2.27010        0.00000
H         -0.36591        3.03834        0.00000
C          0.00000        0.91951        0.00000
N         -1.34781        0.61588        0.00000
O         -1.10735       -2.93947        0.00000
