28
id_1376_cb.log	Energy: -480471.4909298
C          3.64212       -1.48134       -0.37876
H          4.56091       -2.02368       -0.58286
C          3.57071       -0.59821        0.69681
H          4.43581       -0.44574        1.33616
C          2.38773        0.09632        0.95970
H          2.34015        0.78381        1.79829
C          1.26144       -0.08802        0.15446
C          1.34189       -0.97306       -0.92803
H          0.47607       -1.12566       -1.56708
C          2.52204       -1.66455       -1.19266
H          2.56564       -2.35039       -2.03413
C         -0.00714        0.72697        0.41296
C         -1.29102       -0.06917        0.18414
C         -1.38204       -1.38265        0.65838
H         -0.51087       -1.85601        1.10484
C         -2.57805       -2.09273        0.56567
H         -2.62981       -3.11208        0.93765
C         -3.70356       -1.49646       -0.00494
H         -4.63486       -2.04994       -0.08386
C         -3.62504       -0.18468       -0.47079
H         -4.49615        0.29078       -0.91258
C         -2.42707        0.52481       -0.37285
H         -2.38694        1.54818       -0.73697
C          0.07019        1.97864       -0.52508
O          0.18839        3.08826        0.06081
O          0.03240        1.78272       -1.76145
O         -0.03511        1.18100        1.76141
H          0.10138        2.14966        1.70031
