28
id_1412_ca.log	Energy: -303210.9687060
C         -1.21396        2.09516       -0.54337
H         -0.16769        2.22334       -0.82052
H         -1.40192        2.50924        0.44812
H         -1.86201        2.56471       -1.28318
N         -1.52272        0.64531       -0.50110
C         -2.96110        0.33403       -0.20347
H         -3.25715        1.01414        0.59754
H         -3.55117        0.54022       -1.09574
C         -2.95852       -1.13240        0.25217
H         -3.58278       -1.24075        1.13984
H         -3.35927       -1.78371       -0.52557
C         -1.47970       -1.47400        0.54630
H         -1.06845       -2.11414       -0.23889
H         -1.33967       -1.97913        1.50275
C         -0.75187       -0.12899        0.54890
C          0.72681       -0.13671        0.26707
C          1.23913       -0.75273       -0.87988
H          0.56895       -1.24443       -1.58193
C          2.60769       -0.73647       -1.13099
H          2.99728       -1.21342       -2.02473
C          3.47653       -0.11349       -0.23487
H          4.54431       -0.10652       -0.43011
C          2.97180        0.50065        0.90856
H          3.64312        0.98876        1.60799
C          1.60005        0.49454        1.15425
H          1.20135        0.97967        2.04116
H         -0.95265        0.40871        1.48111
H         -1.29441        0.23856       -1.41812
