21
id_1095_ca.log	Energy: -518366.4606715
C          2.61322       -0.76718        1.25053
H          3.68114       -0.98024        1.21402
H          2.04084       -1.69286        1.30167
H          2.37492       -0.11554        2.08998
N          2.24717       -0.05420       -0.01618
C          2.57796       -0.88156       -1.22081
H          3.64965       -1.07689       -1.20280
H          2.30102       -0.31668       -2.10975
H          2.02071       -1.81577       -1.16222
C          0.84857        0.40875       -0.01397
C          0.59933        1.77257       -0.02193
H          1.42174        2.48183       -0.03129
C         -0.72357        2.20835       -0.01838
H         -0.93950        3.27090       -0.02496
C         -1.77101        1.29348       -0.00746
H         -2.80202        1.62895       -0.00619
C         -1.47719       -0.06687        0.00197
C         -0.17015       -0.53590       -0.00003
H          0.04059       -1.60061        0.01068
Cl        -2.78473       -1.22230        0.01636
H          2.83826        0.78552       -0.06340
