14
id_148_cb.log	Energy: -3407278.9636212
C          1.21623        1.67919       -0.00288
H          2.09562        2.31361        0.00040
C         -0.04785        2.24696       -0.00336
H         -0.15393        3.32791       -0.00176
C         -1.21212        1.46011       -0.00676
C         -1.03468        0.06826       -0.00419
C          0.22287       -0.52185       -0.00040
H          0.31719       -1.60175        0.00434
C          1.34518        0.29358       -0.00151
Br         3.06961       -0.49472        0.00242
Br        -2.56313       -1.05543       -0.00054
N         -2.46053        2.05006       -0.07466
H         -3.21971        1.49956        0.30998
H         -2.47989        3.00782        0.25838
