18
id_1419_cb.log	Energy: -181885.1327428
C          2.67167        0.43854        0.09074
H          2.60019        1.14701       -0.74016
H          3.68613        0.03156        0.10347
H          2.51555        0.99305        1.02123
C          1.64577       -0.67868       -0.05573
H          1.76257       -1.40696        0.75830
H          1.82432       -1.23846       -0.98272
C          0.22923       -0.19559       -0.05927
C         -0.24738        1.05472        0.01051
H          0.35143        1.95673        0.02802
C         -1.75568        1.01821       -0.09842
H         -2.08640        1.28441       -1.11245
H         -2.27429        1.68485        0.59666
C         -2.04187       -0.46148        0.20563
H         -2.91428       -0.85129       -0.32254
H         -2.20253       -0.59151        1.28384
N         -0.80614       -1.15235       -0.21671
H         -0.63012       -1.99733        0.32257
