21
id_1951_ca.log	Energy: -601676.9513789
C         -0.37801        1.27158       -0.67143
H          0.10591        1.94723       -1.37343
C         -1.66694        0.82077       -0.94608
H         -2.18467        1.13482       -1.84712
C         -2.28324       -0.03825       -0.04056
C         -1.64196       -0.44858        1.12222
H         -2.13766       -1.11828        1.81803
C         -0.35064        0.01403        1.37643
H          0.15772       -0.30498        2.28297
C          0.29858        0.87657        0.48913
C          1.70059        1.37146        0.76083
H          1.71538        2.46582        0.72110
H          2.00720        1.07804        1.76932
C          2.71923        0.85731       -0.25694
H          3.70291        1.30853       -0.07484
H          2.43767        1.12515       -1.28032
C          2.91742       -0.63158       -0.19108
O          2.59348       -1.34761        0.73825
O          3.53455       -1.11417       -1.28202
H          3.67320       -2.07530       -1.17207
Cl        -3.90542       -0.61333       -0.37344
