16
id_1606_cb.log	Energy: -217389.1768507
C         -2.06836       -0.88712       -0.05997
H         -1.47453       -1.70974        0.35651
H         -2.16835       -1.05911       -1.13808
H         -3.06763       -0.94184        0.38396
C         -1.41155        0.46267        0.21770
H         -1.30564        0.61146        1.30014
H         -2.05372        1.27191       -0.15264
C         -0.03361        0.60446       -0.43886
C          0.59168        1.96448       -0.12123
H          0.70815        2.09223        0.96059
H         -0.04755        2.77334       -0.49190
H          1.57792        2.07117       -0.58637
C          0.89819       -0.52397        0.01972
O          1.13600       -0.62125        1.25931
O          1.37976       -1.29639       -0.86076
H         -0.15286        0.50854       -1.52478
