21
id_1290_ca.log	Energy: -277052.1424619
C          2.98069        0.34608       -0.00058
H          4.00641        0.70078       -0.00143
C          2.72537       -1.04805        0.00002
H          3.55823       -1.74404       -0.00010
C          1.43650       -1.51842        0.00050
H          1.23059       -2.58506        0.00072
C          0.34360       -0.61249        0.00073
C         -1.00044       -1.07113       -0.00042
H         -1.21047       -2.13762       -0.00190
C         -2.01271       -0.15738       -0.00091
C         -1.79065        1.23665       -0.00001
H         -2.63412        1.92002       -0.00143
C         -0.49937        1.69350        0.00060
H         -0.29706        2.76045       -0.00021
C          0.59739        0.78812        0.00077
C          1.94244        1.24335       -0.00017
H          2.13033        2.31340       -0.00075
N         -3.40474       -0.62760        0.00030
H         -3.45774       -1.65152       -0.07841
H         -3.93566       -0.22863       -0.78592
H         -3.89426       -0.35598        0.86406
