39
id_1317_cb.log	Energy: -401547.6809385
C         -4.30581       -2.57497        0.92093
H         -3.43312       -3.23659        0.94628
H         -5.16908       -3.16947        0.60685
H         -4.49043       -2.22842        1.94361
C         -4.06697       -1.39580       -0.01653
H         -4.96386       -0.76486       -0.05410
H         -3.90160       -1.76318       -1.03759
C         -2.87098       -0.54678        0.41219
H         -1.98732       -1.19381        0.48317
H         -3.04982       -0.14043        1.41644
C         -2.62144        0.59877       -0.56152
H         -3.56659        1.13415       -0.71699
H         -2.34303        0.18140       -1.54676
N         -1.64435        1.59159       -0.10180
C         -1.53356        2.63853       -1.11263
H         -1.15117        2.28066       -2.08280
H         -0.88743        3.44715       -0.76464
H         -2.52673        3.06235       -1.28942
C         -0.34497        0.98833        0.24600
C          0.66680        2.02964        0.72297
H          1.04304        2.60400       -0.13280
H          0.18965        2.73500        1.41145
C          1.83622        1.32990        1.41153
H          1.49664        0.92032        2.37248
H          2.62883        2.04839        1.64674
C          2.41020        0.20563        0.57447
C          3.68403       -0.29579        0.86880
H          4.24470        0.14837        1.68844
C          4.23782       -1.33931        0.13667
H          5.22810       -1.71153        0.38140
C          3.51253       -1.90151       -0.91479
H          3.93107       -2.71800       -1.49553
C          2.24719       -1.41049       -1.21356
H          1.67612       -1.84716       -2.03006
C          1.68133       -0.35782       -0.48313
C          0.30371        0.14903       -0.86373
H         -0.32647       -0.71020       -1.12043
H          0.38805        0.75479       -1.77645
H         -0.53569        0.32176        1.09733
