26
id_1234_cb.log	Energy: -395919.5986905
C          4.43711        0.66666       -0.17868
H          4.31351        1.59215       -0.76058
H          5.48747        0.36994       -0.21586
H          4.19150        0.88618        0.86417
N          3.60421       -0.43095       -0.66991
H          3.96074       -0.72259       -1.57655
C          2.20942       -0.02860       -0.84345
H          2.09848        0.93910       -1.35769
H          1.70494       -0.79453       -1.44191
C          1.51513        0.04822        0.52175
C          0.02516        0.22266        0.35533
C         -0.54011        1.49527        0.36338
H          0.08863        2.36235        0.54660
C         -1.90761        1.66770        0.14310
H         -2.36012        2.65432        0.15011
C         -2.71658        0.56352       -0.07933
C         -2.15268       -0.72097       -0.08579
C         -0.79285       -0.88926        0.12513
H         -0.37229       -1.89155        0.11867
O         -3.03381       -1.74795       -0.31092
H         -2.56045       -2.59601       -0.29114
O         -4.06147        0.72880       -0.28643
H         -4.45866       -0.15056       -0.41253
O          1.79860       -1.14280        1.24055
H          2.68430       -1.40563        0.91935
H          1.90396        0.91788        1.07244
