24
id_1607_ca.log	Energy: -1868095.8867279
C         -3.28661        2.02046       -0.50740
H         -2.23038        2.19134       -0.73572
H         -3.48202        2.39612        0.50235
H         -3.88442        2.60635       -1.20974
C         -3.64277        0.54202       -0.61504
H         -3.40204        0.16142       -1.61509
H         -4.71827        0.40113       -0.45870
C         -2.89538       -0.28575        0.42714
C         -1.39205       -0.22816        0.29529
C         -0.62828        0.31027        1.33022
H         -1.11698        0.66117        2.23473
C          0.75650        0.40597        1.21763
H          1.34686        0.82771        2.02353
C          1.36658       -0.05149        0.05662
C          0.62763       -0.59312       -0.99060
H          1.12113       -0.94320       -1.89041
C         -0.75496       -0.67273       -0.86695
H         -1.33355       -1.08581       -1.69012
Br         3.25280        0.06560       -0.10781
N         -3.35216       -1.71801        0.31843
H         -2.88483       -2.31294        1.01282
H         -3.15278       -2.10290       -0.61345
H         -3.18376        0.03218        1.43130
H         -4.36589       -1.78729        0.47134
