16
id_1538_cb.log	Energy: -309089.2742052
C         -1.86987       -1.58772        0.00000
H         -2.61482       -2.38087        0.00000
C         -0.52437       -1.93377        0.00000
H         -0.19728       -2.96839        0.00000
C          0.42602       -0.89784        0.00000
C          0.00000        0.46266        0.00000
C          1.01249        1.43319        0.00000
H          0.74416        2.48696        0.00000
N          2.30622        1.14512        0.00000
C          2.60299       -0.18048        0.00000
H          3.66284       -0.42120        0.00000
N          1.76880       -1.19116        0.00000
C         -1.41193        0.82705        0.00000
C         -2.31522       -0.26067        0.00000
H         -3.38029       -0.04328        0.00000
O         -1.78255        2.05932        0.00000
