24
id_1568_ca.log	Energy: -659556.8852433
C          2.83306        2.02481       -0.06507
H          2.86647        3.10764       -0.09971
C          1.60765        1.36554       -0.07256
H          0.68458        1.93210       -0.11192
C          1.57511       -0.02984       -0.03646
C          2.75641       -0.77244        0.01068
H          2.72612       -1.85739        0.03762
C          3.95519       -0.08672        0.02388
C          4.01993        1.30013       -0.01503
H          4.98291        1.80187       -0.00849
N          5.20498       -0.85161        0.10832
H          5.10509       -1.79050       -0.29926
H          5.97249       -0.37798       -0.38736
C          0.30858       -0.79398       -0.05076
O          0.20167       -1.99016       -0.08794
O         -0.78876        0.04167       -0.01053
C         -2.03296       -0.54105       -0.02245
C         -3.07081        0.58831        0.04890
F         -4.29165        0.06515        0.01645
F         -2.91938        1.27155        1.17827
F         -2.92173        1.41093       -0.98330
F         -2.21472       -1.34972        1.02806
F         -2.24043       -1.24493       -1.14117
H          5.50253       -0.97203        1.08705
