24
id_1949_ca.log	Energy: -337946.6670751
C          2.73580       -0.16569        1.16053
H          3.44517       -0.98192        1.33330
H          2.31724        0.13314        2.12749
H          3.30148        0.67952        0.75478
C          1.64313       -0.63984        0.19673
H          1.23003       -1.56643        0.60209
C          2.24813       -0.94617       -1.17965
H          2.69291       -0.03963       -1.60763
H          1.49224       -1.31890       -1.87791
H          3.03643       -1.70164       -1.08810
C          0.51080        0.36535        0.05603
C          0.81114        1.73138       -0.02804
H          1.84911        2.04875        0.00789
C         -0.18340        2.69774       -0.15420
H          0.09195        3.74626       -0.22422
C         -1.52621        2.32240       -0.18229
H         -2.30853        3.06929       -0.27453
C         -1.85434        0.97565       -0.09185
H         -2.89460        0.66748       -0.11785
C         -0.85033        0.00072        0.00773
C         -1.28074       -1.42490        0.01323
O         -0.67150       -2.34894       -0.49624
O         -2.46205       -1.61136        0.62508
H         -2.70898       -2.55329        0.54466
