41
id_1650_ca.log	Energy: -496082.2993558
C         -4.88648        0.35984       -1.27316
H         -5.72044        0.90317       -1.72425
H         -5.29962       -0.45494       -0.67466
H         -4.27473       -0.06011       -2.07938
C         -4.07153        1.33435       -0.44210
H         -4.61803        1.63312        0.45624
C         -3.63256        2.55403       -1.23323
H         -3.01109        3.21926       -0.62614
H         -4.51733        3.10739       -1.55614
H         -3.06918        2.25243       -2.12259
N         -2.82379        0.65140        0.07199
H         -2.24732        0.37305       -0.73514
C         -3.06023       -0.54274        0.94134
H         -3.78943       -0.25286        1.70002
H         -3.48316       -1.32137        0.30683
C         -1.77952       -1.04945        1.61584
C         -0.65899       -1.25959        0.60608
C         -0.84435       -2.17209       -0.43943
H         -1.76989       -2.73849       -0.50784
C          0.15850       -2.36369       -1.38324
H          0.00999       -3.07091       -2.19318
C          1.35128       -1.64960       -1.29757
H          2.11947       -1.79021       -2.05220
C          1.55597       -0.73687       -0.25829
C          0.53850       -0.55404        0.68947
H          0.71332        0.12377        1.51962
C          2.82611        0.02628       -0.15402
C          2.82973        1.35088        0.30268
H          1.89134        1.83088        0.56611
C          4.01972        2.06709        0.39637
H          4.00195        3.09512        0.74497
C          5.22712        1.47130        0.03613
H          6.15503        2.02987        0.10922
C          5.23555        0.15370       -0.41839
H          6.17194       -0.32189       -0.69366
C          4.04581       -0.56267       -0.51263
H          4.06547       -1.59573       -0.84809
O         -1.41008       -0.25329        2.72437
H         -1.08601        0.61186        2.42720
H         -2.04990       -2.02010        2.04407
H         -2.27294        1.35291        0.58497
