29
id_162_cb.log	Energy: -303669.4794741
C          3.32056       -1.83556        0.35963
H          2.86164       -2.71662       -0.10284
H          3.75953       -2.14490        1.31238
H          4.13509       -1.50301       -0.29350
C          2.29032       -0.72761        0.55247
H          2.74910        0.12429        1.06555
H          1.47188       -1.08140        1.19058
C          1.72717       -0.26480       -0.79471
H          1.47003       -1.13950       -1.40344
H          2.50745        0.26727       -1.34822
N          0.56759        0.61654       -0.72900
C          0.83227        2.03989       -0.53213
H          1.77800        2.25706       -1.03558
H          0.06754        2.61976       -1.05937
C          0.91198        2.49125        0.92565
H          1.03367        3.57809        0.97246
H          1.76305        2.03208        1.43530
H          0.00302        2.22855        1.47518
C         -0.66192        0.09446       -0.34874
C         -1.77461        0.93358       -0.11415
H         -1.67136        2.01029       -0.17821
C         -3.02135        0.40342        0.19750
H         -3.84985        1.08579        0.36623
C         -3.21853       -0.97236        0.29840
H         -4.19331       -1.37916        0.54586
C         -2.12722       -1.81033        0.08159
H         -2.24430       -2.88761        0.16076
C         -0.87219       -1.29772       -0.22953
H         -0.05322       -1.99214       -0.37602
