25
id_1590_ca.log	Energy: -301835.0304140
C          3.20592        0.21576        1.21779
H          4.26988       -0.03704        1.19159
H          2.79257       -0.11020        2.17454
H          3.09864        1.30224        1.14338
C          2.46129       -0.48413        0.09281
C          0.97981       -0.20363        0.05276
C          0.06808       -1.25416        0.09037
H          0.43129       -2.27698        0.14402
C         -1.30774       -1.02402        0.06563
H         -1.99060       -1.86438        0.10134
C         -1.77673        0.28777       -0.00898
C         -0.86948        1.35494       -0.05353
H         -1.25638        2.36714       -0.11203
C          0.49244        1.10893       -0.01746
H          1.18265        1.94936       -0.04776
O         -3.09468        0.62985       -0.04389
C         -4.04420       -0.42701        0.00801
H         -5.02394        0.04852       -0.02829
H         -3.94663       -0.99662        0.93795
H         -3.93052       -1.09966       -0.84835
N          3.07926       -0.05291       -1.21777
H          2.97561        0.96040       -1.35489
H          2.63262       -0.52516       -2.01249
H          2.62809       -1.56148        0.14085
H          4.08296       -0.27110       -1.23870
