26
id_141_cb.log	Energy: -279018.7581035
C         -1.89017        1.47930        0.49444
H         -1.92877        2.13895       -0.37876
H         -1.00920        1.73615        1.08960
H         -2.77486        1.67030        1.11054
C         -1.88118        0.01291        0.07090
C         -1.71983       -0.87923        1.30496
H         -0.77663       -0.66827        1.82051
H         -1.72616       -1.93761        1.01842
H         -2.53900       -0.71106        2.01217
C         -3.19470       -0.31729       -0.63485
H         -3.33663        0.32718       -1.50821
H         -4.03904       -0.17225        0.04596
H         -3.20328       -1.36100       -0.97021
N         -0.80542       -0.25287       -0.92980
H         -0.94033       -1.22090       -1.22343
C          0.54115       -0.12509       -0.49324
C          1.13261        1.13836       -0.35689
H          0.55134        2.02553       -0.58627
C          2.46180        1.25767        0.03941
H          2.90034        2.24594        0.14183
C          3.23569        0.12274        0.27989
H          4.27468        0.22021        0.57826
C          2.66321       -1.13750        0.11985
H          3.25383       -2.03179        0.29579
C          1.32707       -1.25973       -0.25353
H          0.87767       -2.24410       -0.36337
