22
id_1486_ca.log	Energy: -324244.0635627
C         -3.32190       -1.11308        0.00001
H         -3.83301       -0.75414       -0.89366
H         -3.83296       -0.75421        0.89375
H         -3.27539       -2.19978       -0.00004
N         -1.94772       -0.57735       -0.00001
C         -0.90464       -1.38743       -0.00001
H         -1.09643       -2.45477       -0.00001
C          0.40634       -0.86623       -0.00000
C          1.52989       -1.73106       -0.00001
H          1.36694       -2.80483       -0.00001
C          2.79593       -1.19829       -0.00000
H          3.66180       -1.85253       -0.00000
C          2.98182        0.20575        0.00000
H          3.99051        0.60726        0.00001
C          1.90666        1.06635        0.00000
H          2.05403        2.14072        0.00001
C          0.59594        0.53925        0.00000
C         -0.57134        1.36157        0.00000
C         -1.81307        0.78872       -0.00000
H         -2.73078        1.36502       -0.00001
O         -0.38362        2.69814        0.00000
H         -1.23558        3.17027       -0.00000
