21
id_146_cb.log	Energy: -287566.7324528
C         -3.19283        0.30732        0.15084
H         -3.11758        0.65767        1.19014
H         -4.08423       -0.31247        0.05430
H         -3.32403        1.17516       -0.49924
N         -2.03327       -0.47761       -0.25692
C         -2.10770       -1.89510        0.07501
H         -1.50471       -2.48777       -0.61680
H         -3.14193       -2.22390       -0.02761
H         -1.77046       -2.10481        1.10032
C         -0.79091        0.13089       -0.13052
C         -0.66400        1.53522       -0.05627
H         -1.54751        2.16145       -0.06282
C          0.58081        2.14751        0.02369
H          0.63189        3.23033        0.07562
C          1.75299        1.40030        0.04615
H          2.72843        1.86786        0.11201
C          1.63192        0.00980       -0.00970
C          0.39244       -0.62900       -0.08974
H          0.36902       -1.71078       -0.11979
C          2.81966       -0.80019        0.02581
N          3.77997       -1.44998        0.05439
