15
id_1077_ca.log	Energy: -1794117.2987546
C          1.69391        1.21478       -0.00632
H          2.24666        2.14901       -0.01070
C          0.30303        1.21520       -0.00225
H         -0.24148        2.15218       -0.00376
C         -0.37333        0.00000        0.00020
C          0.30303       -1.21520       -0.00225
H         -0.24148       -2.15218       -0.00376
C          1.69391       -1.21478       -0.00632
H          2.24666       -2.14901       -0.01070
C          2.36140        0.00000       -0.00867
N          3.82966        0.00000        0.00965
H          4.21408       -0.83005       -0.46119
H          4.21408        0.83005       -0.46119
Br        -2.26662        0.00000        0.00184
H          4.19367       -0.00000        0.97302
