14
id_1120_cb.log	Energy: -757164.7354629
C         -0.97305       -1.39490        0.00676
H         -1.59932       -2.27890        0.01138
C          0.41367       -1.50021        0.00922
H          0.88563       -2.47701        0.01687
C          1.20368       -0.35946        0.00058
C          0.64943        0.93125       -0.00480
C         -0.75111        1.02847       -0.00370
H         -1.21231        2.01097       -0.00459
C         -1.52664       -0.11916       -0.00118
Cl        -3.26919        0.04875       -0.00028
N          1.43275        2.06755       -0.07691
H          0.95821        2.91075        0.22723
H          2.35399        1.98420        0.33882
Cl         2.94499       -0.52750       -0.00516
