18
id_1501_ca.log	Energy: -299313.1472149
C          2.34265        1.09192       -0.00000
H          3.10972        1.86039       -0.00000
C          2.71735       -0.27445       -0.00000
H          3.77040       -0.54029       -0.00000
C          1.76131       -1.26182       -0.00000
H          2.03806       -2.31225       -0.00000
C          0.38027       -0.93243        0.00000
C          0.01254        0.43988        0.00000
C          1.01394        1.44419        0.00000
H          0.71795        2.48846        0.00000
C         -1.38036        0.74183        0.00000
C         -2.29346       -0.28624       -0.00000
H         -3.36095       -0.08863       -0.00000
C         -1.80817       -1.61071       -0.00000
H         -2.52752       -2.42645       -0.00000
N         -0.53539       -1.95086        0.00000
O         -1.72307        2.05170       -0.00000
H         -2.69167        2.14816        0.00000
