26
id_1678_cb.log	Energy: -279012.4178965
C          3.88552        0.00002       -0.57728
H          4.54604       -0.00054        0.29743
H          4.12561        0.88793       -1.16867
H          4.12535       -0.88736       -1.16958
C          2.43895        0.00002       -0.15656
C          1.75321       -1.19905        0.05981
H          2.26794       -2.14330       -0.10121
C          0.42571       -1.19867        0.48081
H         -0.08655       -2.14357        0.65020
C         -0.26110       -0.00002        0.69606
C          0.42568        1.19865        0.48081
H         -0.08659        2.14354        0.65021
C          1.75319        1.19906        0.05981
H          2.26790        2.14333       -0.10121
C         -1.71602       -0.00003        1.11909
H         -1.91025        0.88437        1.73570
H         -1.91024       -0.88447        1.73564
N         -2.71049       -0.00001        0.03397
C         -2.59456       -1.18952       -0.80041
H         -2.65458       -2.08826       -0.17905
H         -1.65396       -1.22894       -1.37381
H         -3.42234       -1.20977       -1.51576
C         -2.59457        1.18955       -0.80035
H         -3.42235        1.20983       -1.51570
H         -1.65397        1.22901       -1.37374
H         -2.65461        2.08826       -0.17894
