12
id_1452_cb.log	Energy: -283824.6971879
C          2.46395       -0.00000        0.00000
H          3.54777       -0.00000        0.00000
C          1.73038        1.17631       -0.07416
H          2.22379        2.14235       -0.13716
N          0.39367        1.18649       -0.06985
C         -0.21707        0.00000       -0.00000
N          0.39367       -1.18649        0.06985
C          1.73038       -1.17631        0.07416
H          2.22379       -2.14235        0.13716
C         -1.75675        0.00000       -0.00000
O         -2.32575       -1.10949       -0.15744
O         -2.32575        1.10949        0.15744
