19
id_1912_ca.log	Energy: -335826.7782999
C         -0.21834        2.56471       -0.00001
H         -0.85423        2.68736        0.88058
H         -0.85421        2.68735       -0.88062
H          0.52799        3.36225       -0.00001
C          0.48498        1.22881       -0.00000
C          1.87755        1.24420       -0.00001
H          2.39168        2.20025       -0.00002
C          2.62215        0.06180        0.00000
H          3.70743        0.10762       -0.00000
C          1.98764       -1.16647        0.00001
H          2.54160       -2.09976        0.00001
C          0.59112       -1.21862        0.00000
C         -0.18208       -0.02924        0.00001
C         -1.65058       -0.18035       -0.00000
O         -2.22489       -1.27188       -0.00005
O         -2.36059        0.94496        0.00004
H         -3.30908        0.70796        0.00003
O          0.04882       -2.46164        0.00002
H         -0.93245       -2.37362       -0.00002
