40
id_1026_ca.log	Energy: -401346.8218656
C          3.56637       -0.44035       -1.03216
H          4.59554       -0.47965       -1.40194
H          3.48960        0.42094       -0.36088
H          2.90850       -0.25450       -1.88859
C          3.18448       -1.74509       -0.33592
H          3.86769       -1.93591        0.50161
H          3.31388       -2.57533       -1.03904
C          1.74396       -1.75138        0.18036
H          1.44743       -2.77038        0.45690
H          1.07931       -1.45280       -0.64523
C          1.54396       -0.84692        1.39973
H          1.98371        0.14295        1.22847
H          2.06933       -1.27707        2.25882
C          0.07999       -0.69551        1.78251
H         -0.06194       -0.21561        2.75318
H         -0.41724       -1.66823        1.79775
N         -0.63869        0.16141        0.77527
C         -2.08317       -0.20271        0.62555
H         -2.48348       -0.42744        1.61615
H         -2.60480        0.66347        0.21019
C         -2.20694       -1.37410       -0.33396
C         -3.66417       -1.71693       -0.58546
H         -4.15450       -2.02629        0.34217
H         -3.73370       -2.53807       -1.30417
H         -4.19025       -0.84821       -0.99297
O         -1.55238       -0.94187       -1.52708
H         -1.36064       -1.72684       -2.06454
C         -0.42834        1.62693        1.01261
H         -1.25408        2.00058        1.62081
H          0.50846        1.74775        1.56162
C         -0.32278        2.33289       -0.32866
C         -0.02899        3.81027       -0.14566
H          0.08217        4.29102       -1.12144
H          0.89944        3.94201        0.41838
H         -0.84448        4.30273        0.39193
O          0.73911        1.66131       -1.00816
H          0.68269        1.88580       -1.95059
H         -1.68199       -2.24734        0.07441
H         -1.25625        2.19995       -0.89137
H         -0.21350       -0.02148       -0.15016
