15
id_1093_ca.log	Energy: -469059.8744279
C         -0.62572        1.89348        0.00169
H         -0.80168        2.96336        0.00214
C         -1.70679        1.01662       -0.00615
H         -2.72872        1.38144       -0.01230
C         -1.44799       -0.34451       -0.00995
C         -0.16408       -0.86835       -0.00734
H          0.00471       -1.94075       -0.01367
C          0.89164        0.03551        0.00068
C          0.67957        1.41043        0.00582
H          1.52302        2.09190        0.01003
Cl         2.52425       -0.57854        0.00051
N         -2.57990       -1.28032        0.00756
H         -2.36451       -2.14558       -0.50552
H         -3.41719       -0.86378       -0.42134
H         -2.82851       -1.54820        0.97052
