21
id_140_ca.log	Energy: -1843436.4173683
C         -2.05097        2.53100        0.01949
H         -2.65476        2.65482       -0.88697
H         -1.35715        3.37094        0.07731
H         -2.72548        2.58226        0.88094
C         -1.29298        1.23131       -0.00051
C          0.10200        1.21392        0.00366
H          0.64832        2.15079        0.01161
C          0.77517        0.00000       -0.00021
C          0.10200       -1.21392        0.00366
H          0.64832       -2.15079        0.01161
C         -1.29298       -1.23131       -0.00051
C         -1.94710        0.00000       -0.01698
N         -3.41838       -0.00000       -0.02298
H         -3.80103       -0.82545       -0.50306
H         -3.80103        0.82545       -0.50305
C         -2.05097       -2.53100        0.01949
H         -2.65476       -2.65482       -0.88698
H         -2.72548       -2.58226        0.88094
H         -1.35715       -3.37094        0.07731
Br         2.66995       -0.00000       -0.00286
H         -3.80454       -0.00000        0.93291
