23
id_1184_cb.log	Energy: -254361.7519294
C         -2.71172        0.81010        1.16464
H         -3.49472        1.29312        0.56873
H         -1.82363        1.45120        1.13466
H         -3.05445        0.76919        2.20256
C         -2.40114       -0.58464        0.63055
H         -3.27232       -1.23871        0.75177
H         -1.58787       -1.03081        1.21499
C         -2.02359       -0.56862       -0.85181
H         -2.88191       -0.23269       -1.44155
H         -1.78591       -1.57993       -1.19516
N         -0.91498        0.32300       -1.19291
H         -1.20127        1.29705       -1.15651
C          0.32362        0.14196       -0.57260
C          0.78789       -1.12647       -0.18795
H          0.15779       -2.00004       -0.32146
C          2.05862       -1.27324        0.36295
H          2.39463       -2.26491        0.65247
C          2.89445       -0.17391        0.54687
H          3.88234       -0.29681        0.97836
C          2.43520        1.08895        0.17055
H          3.06620        1.96215        0.30983
C          1.16842        1.24823       -0.37718
H          0.81544        2.23600       -0.66438
