20
id_1528_ca.log	Energy: -334015.3933027
C          2.93121        1.21357       -0.00000
H          3.91171        0.73254        0.00001
H          2.85616        1.85767        0.88274
H          2.85618        1.85765       -0.88275
C          1.83868        0.18983        0.00000
C          2.11420       -1.16289        0.00000
H          3.13873       -1.52064        0.00000
N          1.17640       -2.14258       -0.00000
N         -0.08235       -1.82575       -0.00000
C         -0.45104       -0.52219        0.00000
C          0.47020        0.55473        0.00000
C         -0.01677        1.88812        0.00000
H          0.68056        2.71940        0.00000
C         -1.37407        2.10590       -0.00000
H         -1.75521        3.12279       -0.00000
C         -2.30681        1.03782       -0.00000
H         -3.37413        1.23553       -0.00000
C         -1.85708       -0.25759        0.00000
O         -2.73111       -1.29781        0.00000
H         -2.21452       -2.12799       -0.00000
