18
id_1843_cb.log	Energy: -439013.0231283
C         -1.56650        1.78008        0.00420
H         -1.67161        2.86043        0.01721
C         -2.70347        0.98664        0.00481
H         -3.69174        1.43669        0.01682
C         -2.58532       -0.41319       -0.00876
C         -1.30629       -0.98056       -0.01983
H         -1.17580       -2.05827       -0.02658
C         -0.18972       -0.15692       -0.02090
C         -0.28280        1.23034       -0.01007
H          0.58758        1.87283       -0.00968
O          1.02107       -0.86297       -0.03296
C          2.19101       -0.19083        0.00407
F          2.35841        0.60833       -1.05379
F          3.16582       -1.08910        0.00410
F          2.31572        0.56406        1.09916
N         -3.71358       -1.22039       -0.07242
H         -3.57564       -2.15668        0.29211
H         -4.54738       -0.79155        0.31438
