24
id_1561_ca.log	Energy: -230863.9963247
C         -2.67826       -1.04608       -0.01541
H         -2.17249       -1.89860       -0.46508
H         -3.67449       -0.93655       -0.44302
H         -2.73762       -1.15929        1.06818
N         -1.90505        0.19416       -0.30545
C         -2.66982        1.40364        0.11020
H         -2.08144        2.28767       -0.13348
H         -2.83938        1.34013        1.18570
H         -3.61796        1.41679       -0.42586
C         -0.54464        0.18789        0.32710
H         -0.07898        1.13637        0.05293
H         -0.70909        0.16933        1.40808
C          0.30771       -0.98252       -0.13535
H          0.26526       -1.06872       -1.22787
H         -0.05049       -1.92179        0.29463
C          1.75242       -0.78126        0.28885
H          2.34609       -1.66922        0.03055
H          1.81837       -0.63909        1.37863
O          2.26726        0.35635       -0.37739
C          3.60390        0.61842        0.00271
H          4.25640       -0.23109       -0.23912
H          3.67567        0.82162        1.07945
H          3.93690        1.49717       -0.55266
H         -1.76731        0.24477       -1.32243
