17
id_1171_cb.log	Energy: -205046.9519928
C         -2.79630        0.37321        0.14829
H         -2.83116        1.16457       -0.60550
H         -2.61633        0.84106        1.12627
H         -3.77212       -0.11307        0.16706
N         -1.79287       -0.61948       -0.19853
H         -1.98970       -1.53277        0.19545
C         -0.44741       -0.28012       -0.08440
C         -0.01353        1.05445       -0.08145
H         -0.73496        1.86310       -0.13097
C          1.34764        1.35027       -0.01694
H          1.65973        2.39082       -0.01747
C          2.30060        0.33856        0.05492
H          3.35770        0.57702        0.10904
C          1.87084       -0.99077        0.06007
H          2.59616       -1.79717        0.12123
C          0.51971       -1.29918       -0.00897
H          0.19152       -2.33573       -0.00448
