25
id_1246_cb.log	Energy: -349219.1724649
C         -3.73560       -0.97611       -0.18107
H         -4.68310       -1.50301       -0.23775
C         -2.59464       -1.52664       -0.76062
H         -2.65095       -2.47957       -1.27727
C         -1.37627       -0.85635       -0.67953
H         -0.49220       -1.28975       -1.13748
C         -1.29050        0.37964       -0.02867
C         -2.44345        0.92794        0.54586
H         -2.37506        1.88327        1.05588
C         -3.65672        0.25267        0.47477
H         -4.54163        0.68313        0.93319
C         -0.00894        1.14229        0.02409
N         -0.06534        2.42130        0.05473
H          0.88180        2.80670        0.12160
C          1.27723        0.38201        0.03995
C          1.41068       -0.79363        0.78803
H          0.55830       -1.18287        1.33720
C          2.63482       -1.45386        0.84633
H          2.73116       -2.35734        1.44016
C          3.73152       -0.95816        0.14309
H          4.68292       -1.47945        0.18169
C          3.60302        0.20562       -0.61353
H          4.45115        0.59030       -1.17108
C          2.38406        0.87508       -0.66037
H          2.28375        1.77647       -1.25927
