31
id_1251_cb.log	Energy: -398536.7013617
N         -0.55492       -2.49040       -0.57874
H         -1.51179       -2.85693       -0.59245
C         -0.57465       -1.24679       -0.27289
C         -1.84083       -0.49102       -0.02968
C         -1.93754        0.44100        1.01023
H         -1.06930        0.65117        1.62793
C         -3.14506        1.08441        1.26670
H         -3.21305        1.79535        2.08415
C         -4.26214        0.81757        0.47659
H         -5.20075        1.32667        0.67233
C         -4.17025       -0.10053       -0.56826
H         -5.03427       -0.30472       -1.19276
C         -2.96770       -0.75535       -0.81638
H         -2.89558       -1.46381       -1.63747
C          0.72592       -0.52448       -0.15558
C          1.87696       -1.23542        0.21154
H          1.79287       -2.29329        0.44249
C          3.11221       -0.60174        0.29311
C          3.18676        0.76459       -0.01095
H          4.14981        1.26855        0.04966
C          2.06076        1.49383       -0.38487
C          0.82655        0.83582       -0.44719
H         -0.05710        1.39620       -0.74241
C          2.15366        2.95995       -0.71921
H          1.49953        3.55207       -0.07096
H          1.84079        3.14622       -1.75188
H          3.17602        3.32729       -0.60122
C          4.35120       -1.35452        0.70280
H          4.13145       -2.41029        0.87953
H          4.77833       -0.93593        1.62011
H          5.12228       -1.28960       -0.07181
