29
id_1600_cb.log	Energy: -365927.7507670
C         -3.28524       -1.48005       -1.16924
H         -4.26549       -1.08033       -0.88190
H         -3.34204       -2.57262       -1.12229
H         -3.09756       -1.19374       -2.20973
C         -2.19692       -0.94434       -0.23982
H         -1.23738       -1.38365       -0.54605
C         -2.47828       -1.36222        1.20331
H         -2.63293       -2.44442        1.27079
H         -3.38569       -0.86896        1.57423
H         -1.65408       -1.10175        1.87531
C         -2.09596        0.57706       -0.38494
H         -3.06857        1.02550       -0.14060
H         -1.89047        0.82331       -1.43735
C         -1.03259        1.25875        0.48109
C          0.34306        0.65001        0.26438
C          0.96598        0.72826       -0.98779
H          0.46403        1.23284       -1.81045
C          2.22281        0.17340       -1.20282
H          2.71623        0.22726       -2.16744
C          2.85209       -0.46434       -0.14291
C          2.27466       -0.56325        1.11076
H          2.80484       -1.06774        1.91147
C          1.01344        0.00072        1.30293
H          0.54586       -0.06342        2.28239
F          4.07141       -1.00415       -0.34370
N         -1.08828        2.70635        0.22432
H         -0.86112        2.85489       -0.76027
H         -0.32697        3.14818        0.73974
H         -1.29168        1.11346        1.53561
