22
id_1134_cb.log	Energy: -358000.4311018
C         -1.72192       -2.52625        0.00001
H         -2.37668       -2.59785       -0.87659
H         -2.35918       -2.61233        0.88885
H         -1.04024       -3.37897       -0.01146
C         -0.95423       -1.23409        0.00122
C          0.42693       -1.21792        0.00239
H          0.98023       -2.15028        0.00392
C          1.10957       -0.00000        0.00213
C          0.42693        1.21792        0.00238
H          0.98023        2.15028        0.00392
C         -0.95423        1.23409        0.00121
C         -1.65746        0.00000       -0.00199
N         -3.01782        0.00000       -0.05416
H         -3.51412        0.85340        0.16541
H         -3.51412       -0.85340        0.16543
C         -1.72191        2.52625        0.00000
H         -2.35918        2.61233        0.88884
H         -2.37666        2.59785       -0.87661
H         -1.04023        3.37897       -0.01147
N          2.54400       -0.00000        0.00044
O          3.13842       -1.07589       -0.00054
O          3.13842        1.07589       -0.00049
