22
id_1133_cb.log	Energy: -357984.5422803
C          3.39541        1.25881        0.00845
H          3.17377        1.85476       -0.88363
H          4.46257        1.04433        0.02396
H          3.14939        1.85497        0.89377
N          2.66399        0.00000       -0.00000
C          3.39541       -1.25881       -0.00845
H          4.46257       -1.04433       -0.02396
H          3.14940       -1.85497       -0.89377
H          3.17376       -1.85476        0.88363
C          1.31047       -0.00000       -0.00000
C          0.57671        1.21938       -0.00354
H          1.09622        2.16879       -0.00781
C         -0.79996        1.21572       -0.00374
H         -1.34870        2.14994       -0.00734
C         -1.49025       -0.00000        0.00000
C         -0.79996       -1.21572        0.00374
H         -1.34870       -2.14994        0.00734
C          0.57671       -1.21938        0.00354
H          1.09622       -2.16879        0.00780
N         -2.92111       -0.00000        0.00000
O         -3.51587        1.07651       -0.00255
O         -3.51587       -1.07651        0.00255
