18
id_1982_cb.log	Energy: -249859.0074014
C          2.52469       -1.31483        0.00598
H          3.09647       -1.01258        0.88883
H          3.10254       -1.01875       -0.87500
H          2.41489       -2.40081        0.00937
C          1.19038       -0.63021       -0.00110
C         -0.00000       -1.35319       -0.00349
H         -0.00000       -2.43687       -0.00062
C         -1.19038       -0.63021       -0.00110
N         -1.19946        0.70775       -0.00277
C          0.00000        1.31028       -0.00685
N          1.19946        0.70775       -0.00277
N          0.00000        2.67625       -0.06675
H          0.85461        3.12843        0.23177
H         -0.85461        3.12843        0.23177
C         -2.52469       -1.31483        0.00598
H         -2.41490       -2.40081        0.00937
H         -3.10254       -1.01875       -0.87500
H         -3.09647       -1.01258        0.88883
