36
id_1758_ca.log	Energy: -588071.0843039
C         -5.87958       -0.20380        0.01426
H         -6.95589       -0.34211        0.02203
C         -5.33341        1.09313       -0.06056
H         -5.99639        1.95153       -0.10935
C         -3.97050        1.29391       -0.07240
H         -3.57526        2.29674       -0.12995
C         -3.07361        0.19535       -0.00848
C         -3.63284       -1.11283        0.06863
C         -5.03723       -1.28705        0.07790
H         -5.43064       -2.29809        0.13707
C         -2.77800       -2.25311        0.13771
H         -3.23153       -3.23844        0.19501
C         -1.42434       -2.11834        0.13350
H         -0.75187       -2.96734        0.18574
C         -0.86864       -0.81818        0.05620
C         -1.63419        0.33613       -0.01547
C         -0.92296        1.62462       -0.10098
O         -1.47973        2.72714       -0.17638
C          0.52660        1.53587       -0.10143
H          1.08066        2.46200       -0.19076
C          1.17143        0.35435       -0.01148
O          0.49285       -0.81072        0.06419
C          2.63345        0.15840        0.00011
C          3.17563       -1.08488       -0.34078
H          2.52494       -1.90808       -0.61193
C          4.55356       -1.27028       -0.34804
H          4.98474       -2.22902       -0.61854
C          5.36776       -0.20305       -0.00688
C          4.85882        1.03916        0.34361
H          5.52469        1.85262        0.61324
C          3.48258        1.21572        0.34830
H          3.07404        2.17716        0.63945
N          6.82413       -0.39184        0.00664
H          7.31043        0.40980       -0.41750
H          7.10044       -1.23502       -0.51337
H          7.18059       -0.49100        0.96753
