30
id_1633_cb.log	Energy: -413111.1224968
C         -3.30577       -1.39366        1.25852
H         -4.29222       -1.85709        1.36171
H         -3.13210       -0.77428        2.14354
H         -2.55352       -2.19219        1.24417
C         -3.22698       -0.57805       -0.03216
H         -3.94802        0.24714        0.02974
C         -3.57089       -1.44377       -1.23714
H         -4.56896       -1.87822       -1.12877
H         -2.85219       -2.26727       -1.32896
H         -3.54355       -0.85988       -2.16161
N         -1.90922        0.03802       -0.25421
H         -1.22504       -0.71787       -0.33537
C         -1.47878        0.92822        0.82236
H         -2.30907        1.60600        1.05145
H         -1.19815        0.41182        1.75077
C         -0.29410        1.76341        0.31894
C          0.94747        0.90057        0.15721
C          1.36937        0.45890       -1.09719
H          0.83043        0.77285       -1.98539
C          2.48299       -0.37006       -1.22625
H          2.82547       -0.72030       -2.19415
C          3.16216       -0.74512       -0.07967
C          2.77467       -0.32563        1.18464
H          3.34140       -0.63995        2.05452
C          1.66058        0.49997        1.29189
H          1.34266        0.84261        2.27387
F          4.24253       -1.54334       -0.19455
O         -0.66750        2.39913       -0.89109
H         -1.23636        1.73928       -1.33536
H         -0.08326        2.54961        1.05199
