18
id_1463_ca.log	Energy: -309517.9711450
C          0.76010        2.80187       -0.00000
H          1.81293        3.08995        0.00001
H          0.27265        3.22736        0.88321
H          0.27266        3.22735       -0.88323
C          0.60415        1.31366        0.00000
C          1.69565        0.46604       -0.00000
H          2.71626        0.82858       -0.00000
C          1.41148       -0.90452       -0.00000
N          0.18176       -1.39374        0.00000
C         -0.79386       -0.47626        0.00000
N         -0.66410        0.83839        0.00001
O         -2.02135       -1.02265        0.00001
C         -3.14743       -0.14025       -0.00001
H         -3.14456        0.48582        0.89466
H         -4.01953       -0.79290       -0.00002
H         -3.14454        0.48581       -0.89467
O          2.43912       -1.77073       -0.00000
H          2.08781       -2.68072       -0.00000
