23
id_1743_ca.log	Energy: -456690.3911893
C          3.73875       -0.10653        0.14725
H          3.85202       -0.06724        1.23536
H          3.71050        0.92073       -0.23000
H          4.62427       -0.59203       -0.26986
C          2.48000       -0.87573       -0.24079
H          2.55344       -1.91494        0.09695
H          2.35363       -0.88557       -1.32888
C          1.24400       -0.24991        0.38871
C          0.97097        1.17497       -0.10137
H          1.32101        1.32077       -1.12638
H          1.41390        1.92433        0.55337
S         -0.85475        1.37782       -0.09614
C         -1.07117       -0.33600       -0.14341
N          0.01975       -1.00375        0.05331
C         -2.39465       -0.97463       -0.38520
H         -2.59177       -0.88740       -1.46048
H         -2.31038       -2.03723       -0.14503
C         -3.51848       -0.30908        0.41091
H         -3.65488        0.73548        0.11512
H         -3.31449       -0.34784        1.48371
H         -4.45411       -0.83622        0.21499
H          1.32864       -0.26616        1.48155
H          0.00946       -2.02405        0.08814
