35
id_1015_ca.log	Energy: -282321.1061864
C          2.53317       -1.18562        1.10034
H          1.52806       -1.06825        1.52158
H          3.24411       -0.70395        1.78292
H          2.75723       -2.25691        1.07976
C          2.65028       -0.58826       -0.30212
H          1.86542       -1.02824       -0.93396
C          3.99799       -0.94514       -0.92680
H          4.81728       -0.56315       -0.30604
H          4.10088       -0.51089       -1.92684
H          4.11577       -2.02993       -1.01188
C          2.48820        0.93900       -0.29569
H          2.49476        1.31503       -1.32611
H          3.35510        1.38305        0.20989
C          1.25942        1.47169        0.42287
H          1.20579        2.56012        0.36350
H          1.23372        1.17728        1.47389
N         -0.00862        0.95713       -0.18749
H          0.01098       -0.07037       -0.18624
C         -1.24273        1.42296        0.52364
H         -1.16315        1.04885        1.54642
H         -1.19020        2.51292        0.54482
C         -2.50703        0.94754       -0.17293
H         -3.34784        1.33090        0.41893
H         -2.57102        1.42175       -1.16010
C         -2.65929       -0.57282       -0.32296
H         -1.89387       -0.93909       -1.02208
C         -4.02601       -0.87981       -0.93273
H         -4.16444       -0.35451       -1.88360
H         -4.82564       -0.56373       -0.25217
H         -4.14192       -1.95268       -1.11556
C         -2.48818       -1.30365        1.00886
H         -3.17969       -0.90014        1.75870
H         -1.47023       -1.21600        1.40593
H         -2.70314       -2.37041        0.89023
H         -0.05264        1.24312       -1.17447
