23
id_1561_cb.log	Energy: -230570.8257564
C         -2.68644       -0.99801        0.08497
H         -2.23496       -1.91667       -0.29588
H         -3.71716       -0.95698       -0.27751
H         -2.71237       -1.05486        1.18818
N         -1.95729        0.17533       -0.38566
C         -2.66978        1.36889        0.05706
H         -2.14032        2.26567       -0.27676
H         -2.76330        1.41474        1.15664
H         -3.67635        1.38311       -0.37001
C         -0.61240        0.20217        0.19200
H         -0.14108        1.14339       -0.10915
H         -0.66711        0.21069        1.29870
C          0.27722       -0.95471       -0.24765
H          0.28209       -1.02837       -1.34153
H         -0.09616       -1.90608        0.14523
C          1.70246       -0.78108        0.24476
H          2.30730       -1.66446       -0.00758
H          1.72018       -0.66875        1.34067
O          2.26700        0.36996       -0.36015
C          3.58745        0.59590        0.08944
H          4.23834       -0.25599       -0.15004
H          3.61332        0.76153        1.17502
H          3.96155        1.48700       -0.41858
