23
id_190_cb.log	Energy: -301429.1730186
C         -3.44456       -1.11394       -0.01655
H         -3.45598       -2.20657       -0.00166
H         -3.98296       -0.77606       -0.90868
H         -4.00411       -0.75151        0.85256
C         -2.03596       -0.58333       -0.00770
C         -0.94919       -1.42321        0.01149
H         -1.08438       -2.50198        0.02099
C          0.37124       -0.89699        0.01485
C          1.50510       -1.75310        0.02878
H          1.33968       -2.82726        0.04961
C          2.77946       -1.24273        0.01184
H          3.63512       -1.91102        0.02177
C          2.98276        0.15641       -0.02810
H          3.99231        0.55413       -0.05659
C          1.90660        1.01146       -0.03777
H          2.08119        2.08186       -0.08829
C          0.57851        0.51152       -0.00464
C         -0.56945        1.37593        0.00084
C         -1.83138        0.82053       -0.00520
H         -2.69682        1.48050        0.00048
N         -0.39074        2.75970       -0.05544
H          0.38729        3.09713        0.50178
H         -1.23501        3.26763        0.18896
