24
id_1185_ca.log	Energy: -254649.3408845
C          2.67898       -1.07357       -0.82185
H          1.75990       -1.46283       -1.27136
H          2.99494       -1.77596       -0.04235
H          3.45038       -1.06103       -1.59742
C          2.47222        0.32116       -0.24125
H          2.14530        1.00587       -1.03423
H          3.42539        0.70818        0.13435
C          1.46389        0.34782        0.92202
H          1.46270        1.34363        1.37882
H          1.79971       -0.35178        1.69488
C          0.06776       -0.04247        0.50374
C         -0.35883       -1.37241        0.57145
H          0.32724       -2.11516        0.96944
C         -1.62895       -1.75343        0.14734
H         -1.92838       -2.79437        0.21344
C         -2.51445       -0.80346       -0.35527
H         -3.50647       -1.09208       -0.68511
C         -2.12371        0.52998       -0.42794
H         -2.79972        1.29054       -0.80777
C         -0.84995        0.87895       -0.00257
N         -0.46567        2.30021       -0.06774
H          0.37169        2.45403       -0.64568
H         -1.21981        2.86953       -0.47289
H         -0.26500        2.68460        0.86601
