24
id_177_ca.log	Energy: -337950.8436131
C          3.13883        1.80880       -0.05531
H          3.98703        1.73614        0.63107
H          2.56254        2.70332        0.20345
H          3.53242        1.95723       -1.06712
C          2.27863        0.57265        0.01081
C          2.65770       -0.53618        0.77084
H          3.58797       -0.50812        1.33344
C          1.85221       -1.67757        0.81036
H          2.16005       -2.53592        1.40149
C          0.65981       -1.71987        0.09345
H          0.03740       -2.61206        0.12292
C          0.25631       -0.61801       -0.67410
C          1.07372        0.51309       -0.70331
H          0.76647        1.37406       -1.29609
C         -1.04563       -0.66329       -1.44267
H         -1.12122        0.20946       -2.09889
H         -1.06228       -1.55284       -2.08159
C         -2.27173       -0.72725       -0.53108
H         -2.21975       -1.57768        0.15613
H         -3.18510       -0.86038       -1.12504
C         -2.47450        0.52545        0.27506
O         -1.97293        1.60896        0.03878
O         -3.32022        0.34175        1.30292
H         -3.45238        1.19412        1.76235
