25
id_1414_ca.log	Energy: -587795.9927923
C          3.03107        0.52387       -0.01993
H          3.87639        1.20410       -0.07242
C          2.31495        0.38548        1.17340
H          2.60330        0.95788        2.05073
C          1.22907       -0.48382        1.23999
H          0.66634       -0.58066        2.16621
C          0.84154       -1.22828        0.11868
C          1.56512       -1.08740       -1.06901
H          1.27063       -1.66157       -1.94477
C          2.65477       -0.21618       -1.14000
H          3.20475       -0.11443       -2.07136
C         -0.33877       -2.16093        0.18260
H         -0.23475       -2.86504        1.01452
H         -0.42006       -2.74198       -0.73987
S         -1.93935       -1.33054        0.50593
C         -2.09529       -0.25407       -0.96698
H         -1.21986       -0.41062       -1.60461
H         -2.97888       -0.56536       -1.52774
C         -2.24298        1.22688       -0.59862
H         -2.44981        1.79470       -1.51250
H         -3.06947        1.37405        0.09953
C         -0.99231        1.78056        0.02701
O         -0.88058        2.13475        1.18682
O          0.02344        1.84590       -0.84368
H          0.83522        2.13571       -0.38053
