24
id_1684_cb.log	Energy: -231196.2357224
C         -1.76366        1.78616        0.08436
H         -1.99649        1.78450        1.15505
H         -2.68825        1.61803       -0.47303
H         -1.39314        2.78060       -0.18240
C         -0.69567        0.74534       -0.22996
C          0.65072        1.18981        0.36177
H          0.92128        2.16733       -0.05018
H          0.51704        1.30666        1.44700
C          1.73020        0.17874        0.09021
C          2.88393        0.47835       -0.50573
H          3.12040        1.49681       -0.80485
H          3.63275       -0.28415       -0.70690
C          1.33886       -1.21658        0.49128
H          1.26009       -1.27626        1.58485
H          2.08610       -1.94619        0.16449
C         -0.02349       -1.55995       -0.10960
H         -0.33904       -2.55095        0.23053
H          0.06730       -1.60433       -1.21162
N         -1.05193       -0.59070        0.28246
C         -2.32799       -1.03034       -0.27419
H         -2.34138       -0.98301       -1.37770
H         -3.15136       -0.42341        0.10676
H         -2.51273       -2.06631        0.02234
H         -0.57656        0.68634       -1.33039
