20
id_1861_ca.log	Energy: -252666.2931802
C          1.41200        1.56647        0.85532
H          0.39523        1.64604        1.25549
H          2.00213        0.94640        1.53779
H          1.85023        2.56732        0.86160
C          1.40482        1.01702       -0.56847
H          0.82152        1.67093       -1.22182
H          2.41917        0.97548       -0.97808
C          0.79194       -0.37868       -0.69181
C         -0.57110       -0.46256       -0.03315
O         -0.82430       -1.20304        0.89221
O         -1.42167        0.38672       -0.58600
C         -2.73811        0.41527       -0.00367
H         -3.20815       -0.56421       -0.10321
H         -3.28838        1.16536       -0.56703
H         -2.66926        0.69576        1.04858
N          1.65159       -1.40876       -0.03751
H          1.74333       -1.23623        0.97180
H          1.25147       -2.34847       -0.14675
H          0.70106       -0.66562       -1.74141
H          2.59094       -1.40603       -0.45343
