22
id_1270_cb.log	Energy: -583961.7216801
C          3.11415       -0.35093        0.06925
H          4.19685       -0.30172        0.12555
C          2.45952       -1.56602        0.22942
H          3.01948       -2.47731        0.41009
C          1.06970       -1.61103        0.15596
H          0.54266       -2.55088        0.27511
C          0.35074       -0.44188       -0.07855
C          0.98888        0.80231       -0.24539
C          2.38171        0.81216       -0.16323
H          2.90033        1.75853       -0.28708
C          0.26894        2.11009       -0.49699
H         -0.38178        2.01566       -1.36799
H          1.02526        2.86785       -0.73047
N         -0.56804        2.49495        0.65266
H         -1.07970        3.34048        0.40450
H          0.04630        2.75401        1.42416
S         -1.42892       -0.60783       -0.14458
O         -1.91515        0.15009       -1.29887
O         -1.74630       -2.03473       -0.06826
N         -2.06223        0.10595        1.19292
H         -1.69219        1.08118        1.22225
H         -1.81285       -0.41990        2.03231
