21
id_1944_cb.log	Energy: -266546.1143419
C          1.05526       -2.51548        0.00860
H          0.36306       -3.35741        0.09881
H          1.76317       -2.56521        0.84449
H          1.63871       -2.65591       -0.90955
C          0.30688       -1.20312       -0.00484
C         -1.08878       -1.21356        0.00095
H         -1.61666       -2.16681        0.01066
C         -1.85869       -0.02197       -0.00211
C         -1.11803        1.18749       -0.00100
H         -1.66996        2.12698        0.00714
C          0.27890        1.21454       -0.00585
C          1.01634        0.01447       -0.01583
C          2.52759        0.01568       -0.00437
H          2.93625        0.96155       -0.36905
H          2.93481       -0.78031       -0.63668
H          2.93111       -0.14395        1.00566
C          0.98330        2.55242        0.00957
H          1.58132        2.70584       -0.89657
H          1.66793        2.63762        0.86146
H          0.25907        3.36928        0.07516
O         -3.17569       -0.03932       -0.00029
