15
id_198_ca.log	Energy: -133607.0017051
C          2.10858        0.30383        0.03085
H          2.32272        0.39962        1.09959
H          1.91174        1.30309       -0.36972
H          3.00014       -0.09309       -0.46027
C          0.91569       -0.61869       -0.20685
H          1.12095       -1.62218        0.17728
H          0.71020       -0.70498       -1.28007
C         -0.30166       -0.06679        0.48207
C         -1.17415        0.91121       -0.19243
H         -0.95162        1.18405       -1.21730
H         -1.75108        1.61376        0.39424
N         -1.62347       -0.49279       -0.04655
H         -1.62482       -1.07353       -0.88650
H         -0.29374       -0.04847        1.56669
H         -2.37095       -0.68607        0.62005
