23
id_1058_cb.log	Energy: -495698.7035948
C         -1.83303        1.79792        0.76753
H         -2.75257        2.37865        0.66231
H         -1.10120        2.43135        1.27457
H         -2.05394        0.94115        1.42022
N         -1.35198        1.43665       -0.56651
H         -2.07661        0.86730       -1.00118
C         -0.12579        0.63711       -0.57137
C          1.09418        1.47059       -0.15908
H          1.11507        2.37744       -0.77192
H          0.98949        1.78550        0.88732
C          2.39302        0.67772       -0.31271
H          2.54101        0.42647       -1.37132
H          3.24504        1.29274       -0.00528
C          2.34313       -0.61046        0.50844
H          2.28643       -0.36001        1.57589
H          3.25460       -1.19903        0.36331
C          1.12456       -1.45432        0.12330
H          1.06603       -2.35716        0.73841
H          1.20669       -1.76801       -0.92507
C         -0.14514       -0.63199        0.29135
Cl        -1.59382       -1.65435       -0.14719
H          0.02710        0.31145       -1.60885
H         -0.29392       -0.37999        1.34468
