24
id_175_ca.log	Energy: -337950.7812292
C          0.92249        2.30593        0.10755
H          0.65093        2.57104        1.13606
H          0.00693        2.35978       -0.49153
H          1.61554        3.06548       -0.26405
C          1.55319        0.93693        0.04448
C          2.88992        0.80041       -0.34711
H          3.45376        1.69265       -0.61048
C          3.50869       -0.44864       -0.40420
H          4.54812       -0.52610       -0.71073
C          2.78648       -1.59120       -0.06433
H          3.25479       -2.57073       -0.10131
C          1.45427       -1.46710        0.32939
H          0.88539       -2.35481        0.59973
C          0.82592       -0.21898        0.38899
C         -0.63045       -0.14258        0.78405
H         -0.86811       -0.96898        1.46202
H         -0.83851        0.78770        1.32204
C         -1.53943       -0.23306       -0.44266
H         -1.38242       -1.17804       -0.97680
H         -1.32661        0.56742       -1.16167
C         -2.99737       -0.14817       -0.09198
O         -3.44912       -0.01048        1.02980
O         -3.79069       -0.24275       -1.17236
H         -4.72353       -0.18079       -0.88793
