46
id_13_ca.log	Energy: -1106795.0256999
C         -6.22142        3.14197        0.30849
H         -6.84313        2.64842       -0.44341
H         -6.51583        2.82775        1.31365
H         -6.31163        4.22283        0.21467
O         -4.83901        2.85253        0.08083
C         -4.45109        1.57017        0.13833
C         -5.30890        0.51129        0.40273
H         -6.36867        0.61629        0.58869
C         -4.69981       -0.74553        0.41728
N         -3.40241       -0.94405        0.20103
C         -2.69752        0.15737       -0.04201
N         -3.14049        1.40779       -0.08738
N         -1.32465        0.05047       -0.27174
H         -0.86162        0.94843       -0.38445
C         -0.55188       -1.07927       -0.35179
O         -0.94120       -2.23507       -0.30295
N          0.80148       -0.77295       -0.48592
H          1.10826        0.17810       -0.74860
S          1.86646       -1.98522       -0.94284
O          1.97290       -2.94990        0.15052
O          1.51175       -2.50762       -2.26452
C          3.39336       -1.04497       -1.10192
H          4.09708       -1.81821       -1.43144
H          3.23477       -0.34694       -1.92603
C          3.85685       -0.41238        0.18359
C          4.49230       -1.23371        1.11913
H          4.61539       -2.28952        0.89435
C          4.97731       -0.71845        2.31807
H          5.45949       -1.37945        3.03160
C          4.85504        0.64266        2.59075
H          5.23438        1.05369        3.52082
C          4.25302        1.48033        1.65802
H          4.16200        2.54257        1.85892
C          3.74093        0.96281        0.46277
C          3.07388        1.90392       -0.48094
O          2.12999        1.61054       -1.20431
O          3.59903        3.11981       -0.45498
C          2.97016        4.10705       -1.29339
H          3.04731        3.80634       -2.33949
H          3.52300        5.02707       -1.11569
H          1.92357        4.22323       -1.00677
O         -5.48626       -1.79870        0.66803
C         -4.88450       -3.10044        0.68719
H         -5.70321       -3.78648        0.89912
H         -4.43865       -3.32938       -0.28273
H         -4.12738       -3.15953        1.47157
