32
id_1028_cb.log	Energy: -315232.3696146
C          2.87144        2.44064       -0.48504
H          3.10162        2.24720       -1.53705
H          1.85088        2.83026       -0.42635
H          3.54528        3.22444       -0.12587
C          3.05861        1.17709        0.34274
H          2.89010        1.39538        1.41321
H          4.10115        0.86022        0.25280
N          2.20302        0.06226       -0.08772
C          2.72877       -1.19593        0.46142
H          2.97647       -1.06969        1.53137
H          1.93313       -1.94476        0.41567
C          3.93529       -1.73500       -0.29402
H          4.25988       -2.68047        0.15113
H          4.78669       -1.04869       -0.26680
H          3.68081       -1.92049       -1.34189
C          0.83735        0.27326        0.41027
H          0.78270        0.03659        1.48986
H          0.59401        1.33618        0.31633
C         -0.22289       -0.51912       -0.34649
H         -0.21763       -0.20567       -1.39789
H          0.01124       -1.59085       -0.33411
C         -1.61462       -0.30667        0.24431
H         -1.62625       -0.64044        1.29052
H         -1.84710        0.76732        0.25424
C         -2.69292       -1.05401       -0.53401
H         -2.46612       -2.12523       -0.55041
H         -2.71150       -0.71027       -1.57415
C         -4.09244       -0.89307        0.07675
H         -4.10635       -1.25482        1.11008
H         -4.83706       -1.46318       -0.48625
C         -4.51835        0.50787        0.08987
N         -4.83779        1.62155        0.09068
