29
id_1634_cb.log	Energy: -420567.6915143
C         -4.69118       -0.39772       -0.21558
H         -4.66328       -1.30386       -0.83895
H         -5.70287        0.01264       -0.24330
H         -4.47989       -0.68914        0.81718
N         -3.73999        0.62419       -0.65177
H         -4.05676        0.99959       -1.54222
C         -2.39697        0.07995       -0.84412
H         -2.38834       -0.86045       -1.41758
H         -1.80414        0.82052       -1.39132
C         -1.73190       -0.16087        0.51680
C         -0.26453       -0.47409        0.34828
C          0.17256       -1.79239        0.29265
H         -0.53934       -2.60239        0.42604
C          1.52075       -2.08589        0.07168
H          1.87631       -3.11052        0.02985
C          2.43267       -1.05603       -0.08583
C          1.99807        0.28129       -0.02747
C          0.65764        0.56932        0.18244
H          0.31318        1.59656        0.23141
O          2.99542        1.20196       -0.19074
C          2.62252        2.57274       -0.14351
H          3.54070        3.14016       -0.29192
H          2.18541        2.82362        0.82839
H          1.90945        2.80901       -0.93986
O          3.75707       -1.33807       -0.29137
H          4.23684       -0.49349       -0.35728
O         -1.90302        1.00013        1.31655
H         -2.74722        1.38085        1.00151
H         -2.21357       -1.02253        1.00282
