18
id_1660_ca.log	Energy: -1818780.2737022
C         -0.74321        2.22777        0.12650
H         -0.85656        3.29444        0.28912
C         -1.85795        1.43826       -0.13957
H         -2.84752        1.88412       -0.18711
C         -1.70968        0.06670       -0.35304
C         -0.44238       -0.51549       -0.29826
H         -0.32185       -1.58136       -0.46726
C          0.65792        0.29044       -0.03341
C          0.52670        1.65805        0.18036
H          1.39960        2.26902        0.38228
Br         2.38357       -0.49538        0.03368
C         -2.91458       -0.79437       -0.61035
H         -2.66109       -1.69707       -1.16534
H         -3.69835       -0.24875       -1.13520
N         -3.51071       -1.24794        0.69147
H         -3.79908       -0.44497        1.26310
H         -2.82990       -1.79221        1.23498
H         -4.33613       -1.83767        0.53286
