16
id_1797_cb.log	Energy: -370928.0162892
C         -2.07412        0.96644        0.00249
H         -3.06800        1.40142        0.00665
C         -0.95468        1.75974        0.00216
H         -1.05200        2.84095        0.00483
C          0.36016        1.21630       -0.00191
C          0.44502       -0.19711       -0.00321
C         -0.69987       -1.01733       -0.00176
H         -0.59796       -2.09464       -0.00176
C         -1.93026       -0.42784       -0.00059
F         -3.03844       -1.19215        0.00013
N          1.71017       -0.87084        0.00066
O          2.74562       -0.20338       -0.00558
O          1.73117       -2.09763        0.00727
N          1.40663        2.07146       -0.03870
H          2.34080        1.73317        0.13379
H          1.21367        3.05097        0.12505
