20
id_1897_cb.log	Energy: -229709.4445468
C         -3.15662        0.00013        0.82168
H         -2.88460        0.88536        1.40607
H         -2.88460       -0.88492        1.40636
H         -4.24279        0.00010        0.68700
C         -2.43064       -0.00010       -0.52677
H         -2.73567        0.88092       -1.10250
H         -2.73566       -0.88133       -1.10220
C         -0.93040       -0.00006       -0.35951
C         -0.21390       -1.19536       -0.24826
H         -0.74424       -2.14234       -0.32619
C          1.16153       -1.20343       -0.04125
H          1.69900       -2.14517        0.03842
C          1.87166        0.00002        0.06445
C          1.16147        1.20343       -0.04135
H          1.69889        2.14520        0.03826
C         -0.21396        1.19528       -0.24835
H         -0.74434        2.14223       -0.32635
N          3.26399        0.00006        0.20361
H          3.61562        0.83243        0.66595
H          3.61567       -0.83225        0.66601
