30
id_1358_ca.log	Energy: -256917.9253488
C          3.17390       -0.43784       -0.13766
H          3.27249       -0.39632       -1.22869
H          3.43066       -1.45117        0.18726
H          3.90289        0.25497        0.29485
C          1.75595       -0.06954        0.28375
C          1.39889        1.34821       -0.15788
H          1.53750        1.43689       -1.24424
H          2.05534        2.08495        0.31616
C         -0.03312        1.70194        0.19437
H         -0.31998        2.67591       -0.20595
H         -0.20355        1.70532        1.27331
N         -1.00094        0.70962       -0.39348
C         -0.72527       -0.74653        0.02153
C          0.74237       -1.03811       -0.32499
H          0.94855       -2.06459       -0.00259
H          0.84977       -1.01682       -1.41973
C         -1.62321       -1.65320       -0.81653
H         -1.28080       -2.68338       -0.68565
H         -1.55178       -1.40415       -1.88090
H         -2.66926       -1.60746       -0.50522
C         -1.01922       -0.93565        1.50584
H         -0.43247       -0.27708        2.15051
H         -0.76342       -1.96799        1.76151
H         -2.08067       -0.79269        1.72436
C         -2.39676        1.17229       -0.14716
H         -2.51035        2.14687       -0.62136
H         -2.55119        1.26343        0.92751
H         -3.10344        0.46794       -0.58075
H          1.68901       -0.12039        1.37853
H         -0.85401        0.72906       -1.41222
