23
id_1371_ca.log	Energy: -264710.0711775
C         -2.18927        1.24324       -0.66117
H         -1.30093        1.26540       -1.29234
H         -2.20140        2.09304        0.02122
H         -3.08681        1.23675       -1.27894
N         -2.17441       -0.01329        0.13964
C         -2.14771       -1.21172       -0.74523
H         -3.03881       -1.18726       -1.37179
H         -2.14318       -2.10599       -0.12227
H         -1.25200       -1.16823       -1.36492
C         -1.08388       -0.03352        1.18794
H         -1.26737        0.83315        1.82579
H         -1.24351       -0.94712        1.76423
C          0.29487        0.00434        0.59617
C          0.94409        1.20848        0.32198
H          0.45665        2.15523        0.54105
C          2.21966        1.17179       -0.22739
H          2.76051        2.08305       -0.45652
C          2.79964       -0.06834       -0.47507
H          3.79629       -0.12687       -0.90380
N          2.20207       -1.23570       -0.20686
C          0.97603       -1.18195        0.31939
H          0.50253       -2.13616        0.54407
H         -3.05629       -0.04599        0.66498
