49
id_1426_cb.log	Energy: -640088.2187456
C          1.98334       -0.23433        2.64431
H          2.56450       -1.15757        2.74866
H          1.60120        0.03934        3.63034
H          2.64462        0.54610        2.26582
C          0.81781       -0.52052        1.72727
O         -0.16624       -1.10037        2.15106
C          0.94259       -0.15070        0.23230
C         -0.35133       -0.55857       -0.50794
H         -0.60573       -1.58200       -0.22595
H         -0.14958       -0.55740       -1.58464
C         -1.53949        0.35974       -0.21632
H         -1.55288        0.65463        0.84821
H         -1.43014        1.28339       -0.79430
N         -2.81832       -0.24939       -0.58891
C         -3.21673       -1.25157        0.40529
H         -3.25926       -0.80045        1.41395
H         -2.48899       -2.06676        0.43562
C         -4.58039       -1.82524        0.06483
H         -4.89473       -2.53896        0.82993
H         -4.53867       -2.34072       -0.90604
O         -5.56916       -0.80576        0.02089
C         -5.20838        0.18042       -0.93671
H         -5.18630       -0.27063       -1.93980
H         -5.98613        0.94736       -0.91161
C         -3.85506        0.78598       -0.61269
H         -3.60168        1.53349       -1.37100
H         -3.91873        1.30078        0.36368
C          2.15195       -0.97180       -0.25497
C          1.99215       -2.31316       -0.62186
H          1.00864       -2.77076       -0.61458
C          3.08697       -3.08735       -1.00158
H          2.93482       -4.12364       -1.28740
C          4.36632       -2.53868       -1.01198
H          5.21937       -3.14116       -1.30809
C          4.54104       -1.20881       -0.63524
H          5.53299       -0.76740       -0.63406
C          3.44612       -0.43567       -0.25845
H          3.60324        0.59919        0.02996
C          1.14633        1.35410        0.04875
C          1.53422        1.84153       -1.20581
H          1.76743        1.14024       -2.00316
C          1.62526        3.20895       -1.44317
H          1.92910        3.56526       -2.42274
C          1.32621        4.11858       -0.42835
H          1.39899        5.18596       -0.61206
C          0.92837        3.64659        0.81817
H          0.68416        4.34297        1.61436
C          0.83482        2.27415        1.05272
H          0.50255        1.93180        2.03029
