20
id_1917_ca.log	Energy: -242332.6147596
C          0.89908       -1.11927        1.07061
H          1.80029       -1.15068        1.69372
H          0.77527       -2.10140        0.59896
H          0.04222       -0.94679        1.73268
C          1.02937       -0.01437        0.01877
C          2.28650       -0.25459       -0.82204
H          3.17828       -0.23144       -0.18520
H          2.39701        0.51782       -1.59227
H          2.24639       -1.23108       -1.31862
C          1.13505        1.34774        0.70959
H          2.03940        1.38087        1.32826
H          0.27661        1.54037        1.36200
H          1.19537        2.15838       -0.02628
C         -0.17752       -0.04607       -0.95537
H         -0.17513       -0.99519       -1.49947
H         -0.08105        0.77645       -1.67111
C         -1.49850        0.11385       -0.26003
O         -1.99722        1.18041        0.05746
O         -2.10247       -1.05546        0.00863
H         -2.94094       -0.88071        0.47952
