25
id_1264_cb.log	Energy: -348718.1827553
C         -3.37637       -1.45944        0.21738
H         -4.40778       -1.12647        0.33201
H         -3.08987       -2.07073        1.07976
H         -3.28141       -2.05204       -0.69877
O         -2.58995       -0.27910        0.14513
C         -1.24312       -0.44871       -0.00470
C         -0.59742       -1.67232       -0.08896
H         -1.16392       -2.59484       -0.03700
C          0.79516       -1.72036       -0.24209
H          1.28906       -2.68606       -0.30669
C          1.54518       -0.55666       -0.31342
C          0.88756        0.68360       -0.22866
H          1.47316        1.59644       -0.28636
C         -0.48834        0.74590       -0.07673
O         -1.21579        1.89800        0.00960
C         -0.49033        3.11770       -0.04707
H          0.22509        3.18833        0.77917
H         -1.23128        3.91198        0.04185
H          0.04068        3.21589       -0.99975
C          3.05196       -0.59332       -0.42953
H          3.37622        0.06785       -1.23927
H          3.36570       -1.60643       -0.69674
N          3.77653       -0.19395        0.78604
H          3.42659       -0.77002        1.55200
H          3.48240        0.75422        1.02230
