34
id_1652_ca.log	Energy: -562581.3973673
C         -4.66248       -1.14624        0.32396
H         -5.67950       -1.44274        0.05568
H         -4.66520       -0.84856        1.37467
H         -4.00735       -2.01568        0.19764
C         -4.23083       -0.01911       -0.59716
H         -4.76846        0.90387       -0.36469
C         -4.38160       -0.37265       -2.06600
H         -5.43745       -0.54730       -2.28492
H         -3.82381       -1.28550       -2.30029
H         -4.02427        0.43790       -2.70820
N         -2.77416        0.30944       -0.35472
H         -2.21392       -0.52921       -0.56514
C         -2.45182        0.80495        1.01608
H         -3.12158        1.64307        1.21473
H         -2.66252        0.00394        1.72339
C         -1.00480        1.28039        1.13342
C          0.03343        0.20798        0.83124
C         -0.19908       -1.14567        1.10457
H         -1.14645       -1.47016        1.52646
C          0.77830       -2.10249        0.84660
H          0.57710       -3.14714        1.05853
C          2.00931       -1.72630        0.31747
H          2.77387       -2.46776        0.11310
C          2.24217       -0.38120        0.05269
C          1.26888        0.58284        0.30422
H          1.47947        1.62703        0.09446
C          3.57597        0.06986       -0.46409
F          4.28470       -0.93684       -0.99421
F          3.45313        1.01412       -1.41167
F          4.33116        0.60743        0.51082
O         -0.80070        2.45842        0.37275
H         -0.55568        2.21918       -0.53673
H         -0.89063        1.58503        2.17996
H         -2.49442        1.02399       -1.04020
