22
id_1135_cb.log	Energy: -357995.2257696
C         -0.56285       -2.57907       -0.12130
H         -1.39925       -2.57460       -0.82442
H         -0.95999       -2.87379        0.85347
H          0.16046       -3.33135       -0.44213
C          0.11950       -1.23629       -0.04576
C          1.50458       -1.20672       -0.06391
H          2.05424       -2.14186       -0.12557
C          2.22050        0.00096       -0.00629
C          1.50391        1.20803        0.05669
H          2.05308        2.14332        0.12093
C          0.11872        1.23641        0.04209
C         -0.56051       -0.00016       -0.00204
N         -2.00395       -0.00049        0.00100
O         -2.59951        0.90882       -0.56885
O         -2.59719       -0.90990        0.57308
C         -0.56493        2.57799        0.12720
H          0.15874        3.32962        0.44877
H         -1.39869        2.56935        0.83340
H         -0.96593        2.87689       -0.84472
N          3.58779        0.00383       -0.06236
H          4.05518        0.83955        0.26764
H          4.05544       -0.85882        0.18835
