17
id_1143_ca.log	Energy: -2005709.0181864
C         -0.54906        2.74117       -0.03683
H         -0.63772        3.82168       -0.05802
C         -1.69355        1.95182       -0.01866
H         -2.68290        2.39276       -0.02649
C         -1.54651        0.57296        0.00623
C         -0.30059       -0.05905        0.01967
C          0.82327        0.76296       -0.00111
C          0.71006        2.15131       -0.02919
H          1.60132        2.76969       -0.04558
Br         2.54385       -0.01364        0.01186
C         -0.11679       -1.55435        0.08984
O          0.01619       -2.15268        1.13319
O         -0.04101       -2.10221       -1.11789
H          0.09955       -3.06710       -1.03145
N         -2.76448       -0.24485        0.01694
O         -2.63665       -1.45939        0.00550
O         -3.84164        0.32346        0.03522
