32
id_1730_cb.log	Energy: -466607.9389633
C         -5.26600        1.03481        0.49554
H         -5.00551        1.11375        1.56112
H         -6.33796        0.85487        0.41036
H         -5.05463        1.99321        0.01591
N         -4.55660       -0.04798       -0.17445
C         -5.18342       -1.35686       -0.03291
H         -4.92764       -2.00485       -0.87411
H         -6.26609       -1.22767       -0.03639
H         -4.89187       -1.86418        0.89821
C         -3.16557       -0.01238       -0.11974
C         -2.47119        1.17710        0.18283
H         -3.01213        2.08341        0.42520
C         -1.08396        1.21450        0.19187
H         -0.58993        2.14719        0.45175
C         -0.31712        0.07833       -0.09069
C         -1.00420       -1.10679       -0.37833
H         -0.44657       -2.00907       -0.61571
C         -2.39068       -1.16028       -0.38649
H         -2.86836       -2.10487       -0.61594
C          1.15717        0.12772       -0.07688
C          1.87618        1.26366       -0.46708
H          1.35222        2.15087       -0.81589
N          3.20339        1.33427       -0.45576
C          3.83582        0.22934       -0.05142
N          3.28311       -0.91343        0.33759
C          1.94657       -0.94665        0.32488
H          1.48973       -1.87322        0.66517
O          5.17453        0.34596       -0.06042
C          5.93701       -0.78645        0.35677
H          6.97864       -0.47886        0.27282
H          5.74532       -1.64403       -0.29186
H          5.70565       -1.05043        1.39103
