21
id_1815_ca.log	Energy: -380790.0211217
C         -3.90085        0.52992        0.01198
H         -3.72871        1.13035       -0.88560
H         -3.71228        1.12600        0.90922
H         -4.92504        0.16148        0.02035
O         -3.07389       -0.63528        0.00220
C         -1.74507       -0.47037       -0.00185
C         -0.97241       -1.64062        0.00002
H         -1.47393       -2.60143        0.00298
C          0.40252       -1.55684       -0.00000
H          1.01210       -2.45189        0.00336
C          1.03119       -0.31076       -0.00172
C          0.26006        0.85497       -0.00875
C         -1.11983        0.78537       -0.00907
H         -1.69805        1.70172       -0.01623
N          0.86260        2.18908       -0.02001
H          1.50231        2.30956       -0.81758
H          0.13712        2.91614       -0.07466
N          2.47834       -0.27616        0.00613
O          3.08504       -1.33170       -0.02389
O          3.03136        0.81830        0.04499
H          1.42618        2.35704        0.82535
