17
id_1346_cb.log	Energy: -1901806.7437764
C         -0.72905       -1.21867        0.50366
H         -1.26119       -2.16373        0.58085
C          0.63532       -1.22436        0.22039
H          1.16275       -2.16194        0.07662
C          1.30789       -0.01021        0.13105
C          0.64717        1.19985        0.31538
H          1.18370        2.14065        0.24564
C         -0.71740        1.18589        0.59695
H         -1.23958        2.12726        0.74877
C         -1.42129       -0.01854        0.69393
C         -2.90625       -0.02567        0.96397
H         -3.17902        0.84918        1.56094
H         -3.18477       -0.93287        1.50532
C         -3.66859        0.02858       -0.37059
O         -4.11890       -1.05627       -0.83322
O         -3.76398        1.15592       -0.93187
Br         3.16270       -0.00449       -0.25502
