32
id_1029_ca.log	Energy: -257655.5437224
C          0.00356        2.58035       -0.12354
H          0.94426        2.70991        0.42387
H         -0.63523        3.42486        0.14958
H          0.20960        2.65370       -1.19895
C         -0.71327        1.26747        0.20961
H         -0.76832        1.16759        1.29944
C         -2.13957        1.32729       -0.34630
H         -2.73942        0.45665       -0.07309
H         -2.11954        1.39915       -1.44013
H         -2.64672        2.21547        0.04180
C          0.00835        0.04008       -0.37872
H         -0.08900        0.10088       -1.46934
C         -0.48920       -1.35022        0.09476
H          0.38384       -2.00986        0.15195
C         -1.41625       -1.97303       -0.95349
H         -0.90762       -2.05894       -1.91928
H         -2.32398       -1.37985       -1.09954
H         -1.71854       -2.97585       -0.63643
C         -1.13697       -1.36776        1.48247
H         -1.35040       -2.40438        1.76066
H         -2.08425       -0.82042        1.49938
H         -0.48641       -0.94268        2.25276
N          1.51561        0.16692       -0.17379
C          1.95494        0.04097        1.24448
H          1.79057       -0.98507        1.57261
H          1.38812        0.73848        1.86118
H          3.01745        0.27976        1.28920
C          2.30744       -0.73657       -1.05906
H          1.95661       -0.61373       -2.08357
H          2.18599       -1.76823       -0.73307
H          3.35499       -0.44601       -0.97966
H          1.75459        1.11873       -0.47413
