21
id_1128_ca.log	Energy: -229989.3996214
C          3.35081        0.00582        0.25625
H          3.62584        0.59224        1.13836
H          3.84780        0.46245       -0.60592
H          3.74098       -1.00711        0.37887
C          1.85793       -0.00569        0.06438
C          1.15080       -1.20687       -0.02872
H          1.68468       -2.14957        0.04562
C         -0.22878       -1.21664       -0.21986
H         -0.77907       -2.15034       -0.29597
C         -0.89039       -0.00383       -0.32077
C         -0.22509        1.21081       -0.22486
H         -0.77471        2.14458       -0.30525
C          1.15124        1.19923       -0.03416
H          1.68788        2.14118        0.03601
N         -2.34902       -0.00159       -0.49064
H         -2.62986        0.81864       -1.04283
C         -3.09257        0.00921        0.80961
H         -4.15935        0.01201        0.59199
H         -2.80227        0.90796        1.35162
H         -2.80898       -0.88514        1.36237
H         -2.63361       -0.82796       -1.03162
