14
id_1464_ca.log	Energy: -237669.4159769
C          2.52223       -0.82987       -0.00000
H          3.08039       -0.50267        0.88322
H          3.08039       -0.50268       -0.88322
H          2.46278       -1.91992        0.00000
C          1.16086       -0.20854        0.00000
C          0.00788       -0.97809        0.00000
H          0.04107       -2.06292       -0.00000
C         -1.20749       -0.28950       -0.00000
N         -1.28387        1.03720       -0.00000
C         -0.11199        1.67852       -0.00000
H         -0.16512        2.76326       -0.00000
N          1.10156        1.14186        0.00000
O         -2.39784       -0.92208       -0.00000
H         -2.26961       -1.88697        0.00000
