24
id_1451_cb.log	Energy: -299159.1759959
C          3.58133        1.50932        0.41986
H          2.98269        2.06140        1.15267
H          4.03594        2.23723       -0.25896
H          4.38828        1.00472        0.96219
C          2.71986        0.50149       -0.33453
H          3.33148       -0.03100       -1.07489
H          1.94216        1.03495       -0.89591
C          2.06594       -0.51235        0.60139
H          1.41162        0.01151        1.30965
H          2.83891       -1.01647        1.19565
C          1.26023       -1.58105       -0.13600
H          0.82153       -2.28522        0.57325
H          1.91847       -2.15079       -0.79807
N          0.19212       -1.04271       -0.97165
H          0.49622       -0.61233       -1.83769
C         -0.89314       -0.41589       -0.42821
N         -1.56898        0.41386       -1.25069
C         -2.66319        0.97494       -0.74354
H         -3.20841        1.64405       -1.40525
C         -3.10626        0.74391        0.55430
H         -3.99695        1.21292        0.95145
C         -2.32618       -0.12007        1.30881
H         -2.59256       -0.35457        2.33698
N         -1.22327       -0.70804        0.84183
