15
id_1094_ca.log	Energy: -469060.3777432
C         -1.04714        1.21475       -0.00613
H         -1.60032        2.14869       -0.01076
C          0.34360        1.21601       -0.00163
H          0.89074        2.15174       -0.00300
C          1.01909       -0.00000        0.00105
C          0.34360       -1.21601       -0.00163
H          0.89074       -2.15174       -0.00300
C         -1.04714       -1.21475       -0.00613
H         -1.60032       -2.14869       -0.01076
C         -1.71465       -0.00000       -0.00879
N         -3.18301        0.00000        0.00898
H         -3.56723       -0.82997       -0.46209
H         -3.56723        0.82997       -0.46210
Cl         2.76460        0.00000        0.00331
H         -3.54761        0.00000        0.97208
