16
id_1767_cb.log	Energy: -1922112.2147270
C         -1.94156       -1.66407       -0.03362
H         -2.52694       -2.57857       -0.03497
C         -0.55812       -1.73805       -0.01671
H         -0.07339       -2.70786        0.01138
C          0.22594       -0.58596       -0.02566
C         -0.43658        0.64054       -0.02902
C         -1.82060        0.73670       -0.02250
H         -2.28719        1.71600       -0.02146
C         -2.60186       -0.42415       -0.03879
N         -3.97728       -0.34791       -0.11830
H         -4.37926        0.51448        0.23226
H         -4.46848       -1.16735        0.22109
N          0.28649        1.91525       -0.04765
O         -0.18220        2.83653        0.60287
O          1.29467        2.00145       -0.72364
Br         2.09908       -0.77834        0.07764
