36
id_1631_ca.log	Energy: -470165.7318620
C         -5.96548       -0.36756       -0.14252
H         -6.29176       -0.29592       -1.18406
H         -6.15301        0.58814        0.35533
H         -6.56174       -1.13643        0.35372
C         -4.50125       -0.74445       -0.05622
H         -4.28458       -1.68503       -0.56575
H         -4.16435       -0.80831        0.97883
N         -3.66192        0.30380       -0.72175
H         -4.04590        0.49170       -1.65553
C         -2.21107       -0.03039       -0.85636
H         -2.12977       -0.95578       -1.42789
H         -1.75091        0.79017       -1.41108
C         -1.56654       -0.16875        0.51612
C         -0.06875       -0.32053        0.36065
C          0.51399       -1.57727        0.35487
H         -0.09935       -2.46158        0.50400
C          1.89316       -1.71957        0.16114
H          2.33507       -2.70899        0.16202
C          2.68718       -0.59639       -0.02026
C          2.09606        0.68899       -0.00932
C          0.72877        0.81906        0.17570
H          0.26428        1.79876        0.19133
O          2.96124        1.72745       -0.18864
C          2.40237        3.03376       -0.18413
H          1.67364        3.15176       -0.99300
H          3.23671        3.71712       -0.34019
H          1.92256        3.25203        0.77574
O          4.03674       -0.61345       -0.20978
C          4.66522       -1.88778       -0.22530
H          4.52560       -2.40579        0.72928
H          5.72582       -1.69662       -0.38673
H          4.27489       -2.50782       -1.03920
O         -1.94337        1.00301        1.22197
H         -1.62469        0.92056        2.13541
H         -1.95873       -1.06184        1.01841
H         -3.73927        1.17640       -0.18304
