26
id_1204_cb.log	Energy: -373141.3471103
C          3.93257       -0.48613        0.01185
H          4.93544       -0.90170        0.02233
C          3.76488        0.93244       -0.02351
H          4.64270        1.57085       -0.03892
C          2.51549        1.48122       -0.03705
H          2.37894        2.55918       -0.06318
C          1.35141        0.64897       -0.01425
C          0.05952        1.18682       -0.02456
H         -0.03977        2.26782       -0.07085
C         -1.07302        0.36970        0.00060
C         -0.90579       -1.05991        0.00948
C         -2.05901       -1.90688       -0.00941
H         -1.91559       -2.98332       -0.00876
C         -3.30594       -1.35424       -0.03349
H         -4.18543       -1.99123       -0.04997
C         -3.48769        0.05637       -0.01714
H         -4.49307        0.46857       -0.01178
C         -2.41446        0.91347        0.00584
N         -2.58616        2.29761       -0.03564
H         -1.94285        2.81127        0.55863
H         -3.54100        2.57182        0.17450
C          0.38644       -1.59270        0.02403
H          0.51139       -2.67339        0.03455
C          1.51970       -0.77518        0.01752
C          2.84680       -1.31244        0.03118
H          2.96689       -2.39230        0.05631
