31
id_1439_cb.log	Energy: -408745.1549559
C         -3.97127       -1.21587        1.03579
H         -4.93621       -0.70162        1.01887
H         -3.52561       -1.08086        2.03637
H         -4.14475       -2.28425        0.87969
N         -3.11499       -0.69384       -0.02124
C         -1.82859       -1.38844        0.01411
H         -1.99569       -2.45565       -0.16220
H         -1.34932       -1.28071        1.00661
C         -0.87150       -0.84801       -1.04051
H         -1.28231       -1.00184       -2.04303
H          0.07949       -1.37208       -0.97385
N         -0.68106        0.59435       -0.84361
C         -1.96297        1.30341       -0.86357
H         -1.78531        2.36475       -0.69959
H         -2.40219        1.16638       -1.85649
C         -2.89250        0.73621        0.19891
H         -2.44773        0.91834        1.19528
H         -3.85516        1.25535        0.16187
C          0.30908        1.10246       -0.05828
O          0.18654        2.17401        0.54700
C          1.61577        0.36890        0.01689
C          2.26359        0.32222        1.25340
H          1.78388        0.76303        2.12200
C          3.50859       -0.28911        1.36703
H          4.00145       -0.33635        2.33286
C          4.12333       -0.83218        0.23976
H          5.09781       -1.30258        0.32650
C          3.49020       -0.76524       -1.00066
H          3.97328       -1.17445       -1.88219
C          2.23651       -0.17081       -1.11344
H          1.74687       -0.11425       -2.08146
