21
id_1065_cb.log	Energy: -206551.4359955
C          2.82512        0.26203       -0.30186
H          3.74125       -0.22332       -0.64321
H          3.04809        0.77389        0.64009
H          2.55425        1.02278       -1.04159
N          1.78104       -0.74942       -0.14693
C          0.63045       -0.36969        0.25835
C          0.19650        1.04062        0.58814
H         -0.08375        1.06364        1.65044
H          1.00249        1.76235        0.44464
C         -1.03324        1.42783       -0.25247
H         -1.36368        2.43280        0.02911
H         -0.74320        1.46731       -1.31053
C         -2.16688        0.41752       -0.07701
H         -2.50693        0.43499        0.96745
H         -3.02280        0.69911       -0.69971
C         -1.69675       -0.99370       -0.42964
H         -1.42773       -1.03041       -1.49345
H         -2.50102       -1.72015       -0.27435
C         -0.47163       -1.38993        0.40911
H         -0.09742       -2.37686        0.12515
H         -0.76819       -1.42829        1.46676
