26
id_1242_cb.log	Energy: -396412.9445228
N          0.06293        2.21837        0.06972
H         -0.83179        2.70295        0.16037
C         -0.08538        0.94230       -0.00373
C         -1.44136        0.31884        0.01406
C         -2.44594        0.84481       -0.80456
H         -2.21121        1.65729       -1.48676
C         -3.73408        0.31924       -0.75904
H         -4.50455        0.72422       -1.40738
C         -4.03109       -0.72391        0.11600
H         -5.03652       -1.13130        0.15403
C         -3.03611       -1.24376        0.94292
H         -3.26615       -2.05037        1.63168
C         -1.74323       -0.73142        0.88829
H         -0.96966       -1.13495        1.53517
C          1.12177        0.09083       -0.09248
C          1.03768       -1.26747       -0.44154
H          0.06653       -1.69165       -0.67369
C          2.16432       -2.07256       -0.50956
H          2.07079       -3.11717       -0.78539
C          3.41667       -1.52398       -0.21989
H          4.30629       -2.14511       -0.26107
C          3.53677       -0.18272        0.10902
H          4.50262        0.26474        0.32074
C          2.40421        0.63749        0.15728
O          2.59329        1.94438        0.44914
H          1.70144        2.39148        0.35058
