20
id_1293_cb.log	Energy: -565155.0092667
C          3.13833       -0.81981       -0.03527
H          4.14963       -1.21480       -0.05315
C          2.06470       -1.67361       -0.00664
H          2.19836       -2.75108       -0.00273
C          0.74888       -1.14241        0.01376
C         -0.38827       -1.99433        0.03602
H         -0.23089       -3.06917        0.05132
C         -1.66212       -1.48917        0.03461
H         -2.52716       -2.14325        0.05066
C         -1.83693       -0.08813        0.00209
C         -0.77691        0.77888       -0.01581
H         -0.95969        1.84712       -0.06217
C          0.54802        0.26783        0.00321
C          1.69050        1.13671        0.00154
C          2.95462        0.57954       -0.02363
H          3.81912        1.23787       -0.02538
N          1.50893        2.51883       -0.04296
H          0.74614        2.85616        0.53526
H          2.35950        3.02697        0.17805
Cl        -3.47073        0.54384       -0.02532
