30
id_1584_cb.log	Energy: -280483.5788899
C          1.05571       -0.67057        1.43967
H          0.53803       -0.20991        2.28730
H          2.03031       -1.02535        1.79113
H          0.47435       -1.53685        1.11329
C          1.23996        0.35982        0.32142
C          2.17031        1.46964        0.84135
H          2.33774        2.22866        0.07086
H          3.13639        1.04970        1.13458
H          1.72286        1.95672        1.71607
C          1.92486       -0.23055       -0.89533
H          1.95422        0.44428       -1.75189
C          2.52115       -1.41741       -0.97761
H          3.03361       -1.72416       -1.88504
H          2.51941       -2.12928       -0.15619
N          0.00830        1.06133       -0.10764
H         -0.20936        1.74330        0.62107
C         -1.25020        0.32553       -0.37025
C         -2.20923        1.36938       -0.96631
H         -2.35723        2.20142       -0.26822
H         -3.18517        0.91988       -1.17370
H         -1.79604        1.77034       -1.89721
C         -1.04576       -0.78764       -1.39267
H         -2.01687       -1.18242       -1.70720
H         -0.45356       -1.61573       -0.99426
H         -0.53542       -0.39295       -2.27638
C         -1.91080       -0.17665        0.90347
H         -1.95189        0.57037        1.70005
C         -2.47435       -1.36573        1.10280
H         -2.96284       -1.60537        2.04330
H         -2.46661       -2.14676        0.34664
