23
id_1384_ca.log	Energy: -441576.8654633
C         -2.37296       -2.25501       -0.03763
H         -2.68653       -3.29430       -0.05391
C         -3.28084       -1.24572       -0.36285
H         -4.30192       -1.48630       -0.63939
C         -2.86785        0.07835       -0.32789
H         -3.54707        0.88660       -0.57503
C         -1.54494        0.36551        0.00804
C         -0.60321       -0.61521        0.34745
C         -1.06600       -1.93678        0.31910
H         -0.37350       -2.72825        0.59397
C          0.82755       -0.36287        0.75989
H          0.93319        0.59842        1.26679
H          1.10975       -1.14387        1.47228
C          1.77083       -0.42538       -0.44108
H          1.51100        0.32683       -1.19391
H          1.71204       -1.40209       -0.93589
C          3.20289       -0.20136       -0.04719
O          3.59787        0.03797        1.07858
O          4.03884       -0.29315       -1.09396
H          4.95377       -0.14297       -0.78515
N         -1.17617        1.78243       -0.00604
O         -0.02778        2.08646       -0.29182
O         -2.04272        2.60620        0.25539
