29
id_1441_ca.log	Energy: -360614.0355891
C         -4.02573       -0.39722        1.06442
H         -5.11806       -0.34538        1.04953
H         -3.64263        0.50722        1.54374
H         -3.72820       -1.26703        1.65625
C         -3.50705       -0.51821       -0.35248
H         -3.77670        0.34644       -0.96150
H         -3.87245       -1.42436       -0.83648
O         -2.07121       -0.66695       -0.36704
C         -1.35958        0.45949       -0.21213
O         -1.85824        1.57366       -0.12785
N         -0.01691        0.21796       -0.13392
C          0.55363       -1.04705       -0.59208
H         -0.11627       -1.86742       -0.34342
H          0.69361       -1.02686       -1.68150
C          1.88264       -1.30208        0.09216
H          2.35856       -2.19515       -0.31448
H          1.76904       -1.40053        1.17450
N          2.81526       -0.15160       -0.13068
C          2.19800        1.11441        0.38109
H          2.08039        0.98492        1.45955
H          2.89641        1.92714        0.17813
C          0.87052        1.36427       -0.30484
H          1.03366        1.56089       -1.37359
H          0.40986        2.24402        0.14167
C          4.14651       -0.39848        0.48631
H          4.00404       -0.51377        1.56124
H          4.78837        0.45575        0.27369
H          4.56323       -1.30803        0.05508
H          2.95068       -0.04697       -1.14585
