33
id_1730_ca.log	Energy: -466892.1066081
C         -5.11141       -0.98113        0.94913
H         -4.88585       -1.92327        0.45086
H         -6.18892       -0.83254        1.01139
H         -4.65731       -0.94585        1.93826
N         -4.54328        0.13633        0.12964
C         -5.12837        0.14759       -1.24962
H         -4.71455        0.99879       -1.78834
H         -6.21013        0.23664       -1.15326
H         -4.86190       -0.78845       -1.73954
C         -3.07033        0.13090        0.10353
C         -2.39399        1.24597        0.57496
H         -2.94291        2.09696        0.96803
C         -1.00377        1.25195        0.54555
H         -0.46959        2.11233        0.93642
C         -0.29615        0.15565        0.04009
C         -1.00982       -0.95382       -0.43320
H         -0.47747       -1.80347       -0.84927
C         -2.39831       -0.97535       -0.40145
H         -2.94083       -1.83824       -0.77623
C          1.18043        0.16864        0.00367
C          1.91381        1.33379       -0.24442
H          1.40324        2.27452       -0.43788
N          3.24073        1.36768       -0.28089
C          3.85387        0.19905       -0.06671
N          3.28161       -0.97513        0.17792
C          1.94641       -0.97430        0.21205
H          1.47247       -1.92836        0.43126
O          5.19026        0.28206       -0.11658
C          5.93671       -0.91813        0.09137
H          6.98198       -0.62370        0.00804
H          5.69336       -1.66159       -0.67053
H          5.73944       -1.32949        1.08347
H         -4.83103        1.01228        0.58356
