13
id_1521_ca.log	Energy: -1806321.8670135
C          1.76569       -1.19769       -0.00000
H          2.31980       -2.13252        0.00001
C          0.37296       -1.20361       -0.00000
H         -0.16143       -2.14811       -0.00000
C         -0.31955        0.00230       -0.00000
C          0.36150        1.21662       -0.00000
H         -0.18332        2.15511       -0.00000
C          1.75227        1.22438       -0.00000
H          2.30084        2.16124       -0.00000
C          2.45090        0.01697       -0.00000
O          3.82001        0.08290        0.00001
H          4.19598       -0.81363       -0.00002
Br        -2.20956       -0.00683        0.00000
