32
id_1335_cb.log	Energy: -374897.3789137
C          3.08366       -0.14037        1.12165
H          3.14556        0.92764        1.34861
H          4.09742       -0.54867        1.17087
H          2.48571       -0.62349        1.90124
C          2.48927       -0.40897       -0.25381
H          2.46273       -1.48953       -0.41863
H          3.12907        0.01614       -1.04475
N          1.11464        0.10756       -0.40162
C          0.41078       -0.62550       -1.47217
H         -0.41831       -0.01093       -1.83984
H          1.09009       -0.77705       -2.32587
C         -0.12869       -1.96975       -0.97142
H         -0.27413       -2.63396       -1.82947
H          0.63092       -2.44686       -0.34158
C         -1.45335       -1.90131       -0.19849
H         -1.64301       -2.88174        0.24959
H         -2.28148       -1.69447       -0.88328
C         -1.49477       -0.84529        0.92176
C         -1.82136        0.53867        0.34909
O         -2.76065        0.64634       -0.42613
C         -1.01659        1.76665        0.71775
H         -1.74530        2.53657        0.98916
H         -0.36254        1.58225        1.57249
C         -0.20655        2.25018       -0.50114
H         -0.01570        3.32291       -0.40407
H         -0.81723        2.12561       -1.40187
C          1.14838        1.55658       -0.63628
H          1.82422        1.98566        0.10900
H          1.58108        1.77378       -1.62751
O         -0.33645       -0.85639        1.72869
H          0.36456       -0.48525        1.12705
H         -2.34396       -1.07637        1.57812
