25
id_1560_ca.log	Energy: -325616.3797150
C         -0.45149        2.65361       -0.00000
H         -0.46170        3.73936       -0.00000
C         -1.69376        1.96347       -0.00000
H         -2.62056        2.52920       -0.00000
C         -1.68868        0.58989        0.00000
C         -0.44798       -0.08171        0.00000
C         -0.59948       -1.48642        0.00000
C          0.52348       -2.27551       -0.00000
H          0.46657       -3.35903       -0.00000
C          1.79801       -1.64801       -0.00000
H          2.69654       -2.25877       -0.00000
C          1.91703       -0.28190        0.00000
C          0.79142        0.58201        0.00000
C          0.76428        2.00152        0.00000
H          1.68676        2.57461        0.00000
N          3.25599        0.32039        0.00000
H          3.98884       -0.40004       -0.00001
H          3.40679        0.91436       -0.82769
C         -2.07678       -1.81802        0.00000
H         -2.34200       -2.41228       -0.87922
H         -2.34200       -2.41228        0.87922
C         -2.80171       -0.43748        0.00000
H         -3.44198       -0.32042        0.87918
H         -3.44198       -0.32042       -0.87918
H          3.40679        0.91434        0.82770
