24
id_189_cb.log	Energy: -348608.5000363
C         -3.72901       -1.57783       -0.00013
H         -3.32481       -2.06841        0.89175
H         -3.32781       -2.06285       -0.89638
H         -4.81628       -1.65301        0.00149
O         -3.43018       -0.18970        0.00367
C         -2.11029        0.15936        0.00194
C         -1.87106        1.56157        0.00504
H         -2.72551        2.23062        0.00855
C         -0.58717        2.03235        0.00380
H         -0.39656        3.10253        0.00662
C          0.51967        1.14144       -0.00110
C          1.86305        1.59929        0.00014
H          2.04945        2.67034        0.00655
C          2.91161        0.71899       -0.00518
H          3.93756        1.07710       -0.00663
C          2.67656       -0.68656       -0.00832
C          1.37583       -1.15463       -0.00533
H          1.18833       -2.22614       -0.00323
C          0.27685       -0.26105       -0.00468
C         -1.06646       -0.73590       -0.00245
H         -1.23753       -1.80682       -0.00474
N          3.76557       -1.55184       -0.07801
H          3.56863       -2.48585        0.26581
H          4.60948       -1.17936        0.34448
