22
id_1013_cb.log	Energy: -183394.3503876
C          3.42999        0.24220       -0.08290
H          4.32111       -0.31884        0.21453
H          3.43871        1.19669        0.45450
H          3.51272        0.46196       -1.15292
C          2.15268       -0.53687        0.21382
H          2.09826       -0.76228        1.28668
H          2.17891       -1.50275       -0.30615
C          0.89690        0.22650       -0.20442
H          0.92635        0.41707       -1.28517
H          0.89634        1.20416        0.29293
C         -0.36998       -0.54666        0.13948
H         -0.44545       -0.64370        1.24072
H         -0.28138       -1.56454       -0.25950
N         -1.60200        0.03177       -0.40343
C         -2.71576       -0.83728       -0.04019
H         -2.56060       -1.83743       -0.45470
H         -3.64966       -0.43734       -0.44487
H         -2.83004       -0.93377        1.05425
C         -1.83818        1.35011        0.17576
H         -1.07262        2.05941       -0.14584
H         -1.84485        1.32297        1.28054
H         -2.80764        1.72806       -0.16031
