20
id_1813_cb.log	Energy: -380513.7019819
C          3.38690       -1.17652        0.00066
H          3.02414       -1.69466        0.89520
H          4.47650       -1.16279        0.00166
H          3.02585       -1.69603       -0.89377
O          2.97519        0.18260       -0.00067
C          1.62833        0.41040       -0.00128
C          1.23481        1.76834        0.00235
H          2.00581        2.53271        0.00719
C         -0.08833        2.11725        0.00231
H         -0.37713        3.16385        0.00617
C         -1.12793        1.14539       -0.00210
C         -0.70167       -0.20003       -0.00453
C          0.66389       -0.56604       -0.00272
H          0.91017       -1.61855       -0.00286
N         -1.64612       -1.27469        0.00023
O         -1.23614       -2.43306        0.01260
O         -2.85276       -1.01786       -0.01154
N         -2.41182        1.57971       -0.04384
H         -3.15919        0.93463        0.16408
H         -2.56697        2.55954        0.15622
