22
id_1428_cb.log	Energy: -253714.7229299
C          3.49751        0.51608       -0.23536
H          3.47586        0.51319       -1.32340
H          4.31863        1.04511        0.23978
C          2.56216       -0.10916        0.47454
H          2.59771       -0.08831        1.56357
C          1.42676       -0.88025       -0.13231
H          1.50691       -1.93406        0.16300
H          1.50141       -0.84281       -1.23453
N          0.11950       -0.39994        0.32170
C         -0.12593        0.95005       -0.19139
H          0.62082        1.63867        0.21442
H         -0.03935        0.96954       -1.29392
C         -1.51317        1.42187        0.20407
H         -1.71653        2.40764       -0.22073
H         -1.58953        1.48446        1.29961
O         -2.51443        0.54398       -0.29318
C         -2.29847       -0.77160        0.19985
H         -2.39650       -0.77555        1.29541
H         -3.08090       -1.40333       -0.22712
C         -0.92617       -1.28244       -0.19946
H         -0.87557       -1.34287       -1.30220
H         -0.78006       -2.29115        0.19998
