28
id_1763_ca.log	Energy: -350263.5896255
C         -3.87448       -0.31915       -1.15427
H         -4.68939       -0.55001       -1.83339
C         -3.06834        0.79750       -1.38076
H         -3.25520        1.43824       -2.23735
C         -2.02481        1.09311       -0.50888
H         -1.39488        1.96197       -0.68778
C         -1.77345        0.28252        0.60341
C         -2.58332       -0.83336        0.82126
H         -2.39547       -1.46788        1.68397
C         -3.62908       -1.13392       -0.05205
H         -4.25218       -2.00391        0.13245
C         -0.61790        0.60155        1.52936
H         -0.71113        0.00374        2.44191
H         -0.65448        1.65653        1.81893
C          0.71755        0.31590        0.87611
C          1.08932       -1.00385        0.59319
H          0.41982       -1.81756        0.85955
C          2.30233       -1.28840       -0.01999
H          2.59734       -2.31141       -0.23395
C          3.13928       -0.23094       -0.35166
C          2.80416        1.08660       -0.09214
H          3.48244        1.89077       -0.36176
C          1.58316        1.35218        0.52557
H          1.30679        2.37998        0.74180
N          4.41779       -0.52697       -1.01472
H          5.07046        0.26425       -0.94267
H          4.87704       -1.34753       -0.59779
H          4.28769       -0.72683       -2.01594
