17
id_1872_cb.log	Energy: -408061.6628728
C         -3.54143        0.01858       -0.56100
H         -3.46873       -0.83936       -1.23938
H         -3.47289        0.92983       -1.16635
H         -4.53337       -0.00287       -0.09768
C         -2.43293       -0.02183        0.48719
H         -2.53288       -0.92808        1.09887
H         -2.53670        0.83123        1.17057
C         -1.03925        0.00671       -0.13929
H         -0.93872        0.91232       -0.75249
H         -0.93275       -0.84910       -0.81947
C          0.07308       -0.02884        0.91127
H         -0.00828       -0.93521        1.52549
H         -0.00915        0.83364        1.58566
P          1.73878       -0.00314        0.17696
O          1.96879       -1.29009       -0.62332
O          1.95651        1.32438       -0.55812
H          2.59255       -0.02730        1.30282
