11
id_1939_cb.log	Energy: -1080404.2842088
C         -0.60760       -0.46525       -0.79292
C         -1.96164        0.07894       -0.24469
O         -2.64003       -0.69629        0.46775
O         -2.25684        1.24908       -0.58707
C          0.60363        0.08590        0.00944
Cl         0.43434       -0.28367        1.74671
Cl         0.78028        1.84209       -0.20371
Cl         2.10358       -0.69594       -0.59302
O         -0.61985       -1.86801       -0.72755
H          0.00093       -2.22566       -1.38351
H         -0.48295       -0.11208       -1.82225
