30
id_176_ca.log	Energy: -421343.6782954
N          0.21931       -2.44007       -0.94175
H          1.10285       -2.93181       -1.06100
C          0.16141       -1.26870       -0.38168
C          1.41047       -0.59190       -0.01319
C          1.43000        0.23014        1.12235
H          0.52239        0.37669        1.70022
C          2.61688        0.83211        1.51647
H          2.63551        1.45686        2.40299
C          3.77976        0.63541        0.77099
H          4.70416        1.11545        1.07616
C          3.75895       -0.16684       -0.36915
H          4.66030       -0.30441       -0.95664
C          2.57901       -0.78652       -0.76251
H          2.56202       -1.38498       -1.66907
C         -1.16001       -0.71333       -0.07554
C         -2.14567       -1.55851        0.45450
H         -1.90570       -2.60169        0.63784
C         -3.39531       -1.06380        0.79461
H         -4.14359       -1.72062        1.22287
C         -3.66725        0.28819        0.59145
H         -4.64050        0.68975        0.85551
C         -2.71383        1.14453        0.04917
H         -2.95842        2.18688       -0.11326
C         -1.45309        0.65230       -0.29513
O         -0.49096        1.39501       -0.87900
C         -0.73403        2.78916       -1.05213
H         -1.57376        2.95455       -1.73343
H          0.17876        3.19312       -1.48763
H         -0.93110        3.27074       -0.08984
H         -0.62411       -2.91351       -1.26168
