38
id_185_ca.log	Energy: -448142.7921859
C         -4.15170       -2.34347       -0.83561
H         -4.96089       -2.14844       -1.54674
H         -4.60540       -2.76834        0.06513
H         -3.48456       -3.09029       -1.27185
C         -3.41076       -1.07400       -0.51199
C         -4.06890       -0.01090        0.11746
H         -5.12086       -0.12188        0.37171
C         -3.42306        1.18597        0.42538
C         -2.06993        1.32133        0.09552
H         -1.53184        2.24003        0.31794
C         -1.42637        0.26663       -0.52743
C         -2.06304       -0.92822       -0.83762
H         -1.51852       -1.72846       -1.33228
N          0.00332        0.41232       -0.84047
H          0.27298       -0.25587       -1.57661
C          0.90974        0.20285        0.35299
C          0.79586       -1.22740        0.90084
H         -0.00613       -1.33294        1.63274
H          0.59334       -1.90715        0.06466
C          2.19687       -1.53181        1.46807
H          2.44853       -2.59333        1.40826
H          2.26133       -1.23547        2.52133
C          3.10141       -0.66038        0.62999
C          2.36837        0.34027       -0.01194
C          2.98872        1.29326       -0.81314
H          2.41695        2.07778       -1.30290
C          4.37105        1.21833       -0.98444
H          4.87540        1.94361       -1.61487
C          5.10908        0.21668       -0.35029
H          6.18413        0.17059       -0.49479
C          4.48107       -0.72544        0.46526
H          5.05961       -1.50166        0.95795
C         -4.15259        2.32206        1.09065
H         -4.17317        3.20274        0.44058
H         -3.65350        2.61460        2.01968
H         -5.18275        2.04399        1.32421
H          0.59634        0.95715        1.08076
H          0.17087        1.35247       -1.22383
