17
id_1930_ca.log	Energy: -251640.6860194
C          2.04512        0.66199        0.38243
H          2.45076        0.97968        1.34592
H          2.76791        0.91547       -0.39960
C          0.67845        1.30018        0.08363
H          0.75506        2.22501       -0.49070
H          0.15316        1.53051        1.01552
C         -0.08795        0.20396       -0.71450
N          0.84023       -0.92195       -0.83104
H          0.32144       -1.79892       -0.81117
C          1.73617       -0.82755        0.33453
H          1.23820       -1.13996        1.26511
H          2.62050       -1.45216        0.18923
C         -1.36693       -0.15952        0.00930
O         -1.59373       -1.22491        0.55156
O         -2.25333        0.84617       -0.00771
H         -3.05595        0.57975        0.48185
H         -0.38536        0.56988       -1.70209
