11
id_1461_ca.log	Energy: -212997.6380022
C          0.19944       -1.17770        0.00000
H          0.72777       -2.12842        0.00001
C          0.90251        0.02302        0.00000
C          0.15250        1.19614        0.00001
H          0.64885        2.16301        0.00001
N         -1.18107        1.17449        0.00000
C         -1.76113       -0.02795       -0.00002
H         -2.84564       -0.04805        0.00003
N         -1.13633       -1.20539        0.00000
O          2.25877        0.11499       -0.00001
H          2.66077       -0.77130        0.00000
