25
id_1750_ca.log	Energy: -231505.0926921
C          0.46676        0.89944        1.37340
H          1.42843        1.36384        1.61328
H         -0.24833        1.25195        2.12501
C          0.61013       -0.64607        1.44372
H         -0.16825       -1.08803        2.07742
H          1.56175       -0.89993        1.91879
C          0.59363       -1.29434        0.04967
H          0.96811       -2.31860        0.13871
C          1.52947       -0.51298       -0.87599
H          2.52319       -0.51330       -0.41385
H          1.62609       -1.03116       -1.83534
C          1.04936        0.93626       -1.09186
H          0.58652        1.04465       -2.07874
H          1.91161        1.61014       -1.07737
C          0.04963        1.40382       -0.01757
H          0.06097        2.49881       -0.00289
C         -1.39941        1.05318       -0.35357
H         -1.60391        1.17649       -1.41895
H         -2.09479        1.67283        0.21571
N         -1.75962       -0.36309       -0.01239
H         -1.83864       -0.45196        1.00721
C         -0.82790       -1.42291       -0.52176
H         -1.28468       -2.36850       -0.22615
H         -0.84214       -1.35127       -1.61215
H         -2.69861       -0.55273       -0.38028
