25
id_1808_cb.log	Energy: -382649.9852502
C          4.48750        0.33883       -0.58753
H          5.28561       -0.40588       -0.64353
H          4.76673        1.08158        0.16867
H          4.40882        0.84002       -1.55621
C          3.17518       -0.33197       -0.20701
H          2.90423       -1.03955       -0.99791
C          3.29758       -1.07845        1.12027
H          3.61980       -0.38934        1.90832
H          4.03815       -1.87968        1.03647
H          2.34346       -1.52273        1.41979
N          2.13275        0.69209       -0.15769
H          2.43095        1.61537        0.13994
C          0.80377        0.44301       -0.09835
C          0.26404       -0.84919       -0.32154
H          0.91840       -1.69002       -0.51815
C         -1.09983       -1.05104       -0.29136
H         -1.50931       -2.03936       -0.46335
C         -1.95558        0.02245       -0.03391
C         -1.45045        1.30874        0.19480
H         -2.12744        2.13035        0.39586
C         -0.09207        1.51338        0.16341
H          0.31407        2.50505        0.33828
N         -3.36985       -0.19583        0.00070
O         -3.80228       -1.32930       -0.19973
O         -4.11204        0.75753        0.22950
