30
id_112_ca.log	Energy: -512911.0045013
C          4.17629       -2.10846       -0.00000
H          5.02725       -2.78275       -0.00000
C          2.86238       -2.62987        0.00000
H          2.71304       -3.70584        0.00000
C          1.76682       -1.79368        0.00000
H          0.76569       -2.21034        0.00000
C          1.93657       -0.38565        0.00000
C          3.25744        0.13726       -0.00000
C          4.36623       -0.74625       -0.00000
H          5.36728       -0.32187       -0.00000
C          3.44514        1.55100       -0.00000
H          4.46019        1.94010       -0.00000
C          2.38381        2.41170       -0.00000
H          2.52074        3.48861       -0.00000
C          1.05764        1.91027        0.00000
C          0.82098        0.52833        0.00000
N         -0.44310       -0.05279        0.00000
N         -1.43148        0.72229       -0.00000
C         -2.70418        0.08260       -0.00000
C         -2.86667       -1.30535       -0.00000
H         -2.00287       -1.95973       -0.00001
C         -4.16154       -1.80683       -0.00000
H         -4.33188       -2.87914       -0.00000
C         -5.23372       -0.91576        0.00000
H         -6.26073       -1.26459        0.00000
C         -4.95803        0.44861        0.00000
H         -5.76706        1.17338        0.00001
N         -3.71858        0.95044       -0.00000
O          0.07023        2.82254        0.00000
H         -0.79643        2.33471        0.00001
