17
id_1101_ca.log	Energy: -597332.4835756
C          1.48705        1.45288        0.00008
H          2.34392        2.11688        0.00440
C          0.19929        1.97955       -0.01089
H          0.05603        3.05545       -0.01844
C         -0.90128        1.13983       -0.01188
C         -0.70390       -0.24352       -0.00492
C          0.57131       -0.78771       -0.00002
H          0.69628       -1.86376        0.00426
C          1.65949        0.07447        0.00360
Cl         3.26360       -0.59012        0.01427
N         -1.82857       -1.18060        0.00632
O         -2.95329       -0.71542        0.11750
O         -1.58836       -2.36635       -0.09152
N         -2.22918        1.74849       -0.03228
H         -2.77521        1.45198       -0.85404
H         -2.15241        2.77471       -0.05404
H         -2.78414        1.48274        0.79333
