38
id_1117_cb.log	Energy: -377652.7776501
C          2.63307       -1.58676       -1.24619
H          1.80984       -2.30750       -1.27347
H          3.57406       -2.14860       -1.25200
H          2.58915       -0.98378       -2.15988
C          2.56229       -0.69208        0.00162
C          3.78178        0.23342       -0.00144
H          3.80345        0.87018       -0.89237
H          4.69560       -0.36995        0.00247
H          3.80158        0.87865        0.88342
C          2.62885       -1.57330        1.25918
H          3.56964       -2.13531        1.27421
H          1.80524       -2.29343        1.29139
H          2.58206       -0.96053        2.16621
C          1.24157        0.08533       -0.00500
C          0.02895       -0.62650       -0.00390
H          0.06172       -1.71053        0.00059
C         -1.20244        0.02855       -0.00496
C         -1.21535        1.42953       -0.00904
H         -2.15826        1.97216       -0.00858
C         -0.02701        2.15938       -0.01263
C          1.20019        1.47550       -0.00977
H          2.11269        2.06390       -0.01071
N         -0.04775        3.55650       -0.08311
H          0.77414        3.98848        0.32667
H         -0.89170        3.96280        0.30777
C         -2.53657       -0.72599        0.00159
C         -3.33646       -0.33741        1.25518
H         -2.78313       -0.59520        2.16499
H         -4.29171       -0.87440        1.27212
H         -3.55229        0.73538        1.27933
C         -3.34407       -0.34518       -1.24947
H         -3.55966        0.72752       -1.27911
H         -4.29958       -0.88194       -1.25709
H         -2.79641       -0.60888       -2.16100
C         -2.34554       -2.24502        0.00582
H         -1.79896       -2.58121        0.89348
H         -1.80319       -2.58666       -0.88235
H         -3.32554       -2.73358        0.00970
