12
id_1974_ca.log	Energy: -202934.7143847
C          0.24596        1.18915        0.00000
H          0.78468        2.13207       -0.00000
C         -1.14325        1.15747        0.00000
H         -1.69707        2.09232       -0.00000
N         -1.87470        0.03452       -0.00000
C         -1.19257       -1.12116        0.00000
H         -1.78778       -2.03016       -0.00000
C          0.19207       -1.21304        0.00000
H          0.69269       -2.17563       -0.00000
C          0.92786       -0.02780        0.00000
O          2.28347       -0.11728       -0.00000
H          2.68212        0.77029        0.00002
