27
id_1390_ca.log	Energy: -313286.3245712
C          3.19134        0.87696        0.44028
H          3.92686        1.58846        0.80153
C          3.58203       -0.24065       -0.29130
H          4.62448       -0.42961       -0.52134
C          2.60085       -1.12591       -0.72329
H          2.87023       -2.01211       -1.29118
N          1.29659       -0.95510       -0.47924
C          0.93476        0.12195        0.22535
C          1.84011        1.06287        0.70921
H          1.48596        1.91383        1.28237
C         -0.54821        0.31931        0.43138
C         -1.19492        1.06174       -0.73898
H         -0.72986        2.04992       -0.79985
H         -0.95340        0.52386       -1.66500
C         -2.70979        1.16818       -0.56818
H         -2.93572        1.77762        0.31543
H         -3.14501        1.67142       -1.43573
C         -3.32261       -0.22133       -0.39947
H         -3.17941       -0.80876       -1.31471
H         -4.39803       -0.15895       -0.21291
C         -2.68623       -0.95448        0.76800
H         -3.03999       -1.98109        0.86361
H         -2.84535       -0.42762        1.71176
N         -1.19997       -1.02615        0.57534
H         -0.96967       -1.57783       -0.26274
H         -0.73736        0.84864        1.36969
H         -0.77406       -1.52082        1.36830
