28
id_1751_ca.log	Energy: -256158.4377250
C          2.91913        0.07350       -0.10698
H          3.34142        0.98521        0.31404
H          3.03443        0.06320       -1.19119
H          3.39065       -0.80361        0.33541
N          1.46189        0.03568        0.20379
C          0.76929        1.24234       -0.36270
H          1.34083        2.09594        0.00712
H          0.89415        1.18182       -1.44827
C         -0.70861        1.36378        0.04561
H         -0.89903        2.43834        0.12661
C         -1.00579        0.71490        1.40725
H         -0.25121        1.01228        2.14594
H         -1.95414        1.12194        1.76903
C         -1.11374       -0.83149        1.30498
H         -2.15832       -1.13231        1.43269
H         -0.54813       -1.31003        2.11219
C         -0.64231       -1.37564       -0.05308
H         -0.83836       -2.45299       -0.07638
C          0.87321       -1.27635       -0.22954
H          1.16158       -1.40733       -1.27625
H          1.38385       -2.02985        0.37455
C         -1.43129       -0.73024       -1.20650
H         -0.90208       -0.91807       -2.14698
H         -2.39846       -1.23602       -1.28751
C         -1.65752        0.78145       -1.00435
H         -2.68146        0.96505       -0.65984
H         -1.54108        1.31719       -1.95176
H          1.37788        0.08594        1.22585
