30
id_1091_ca.log	Energy: -303957.9146238
C         -1.42586        1.77063        0.58697
H         -0.44097        1.88681        1.04588
H         -2.17212        2.16932        1.27889
H         -1.46531        2.36038       -0.33550
C         -1.76289        0.30735        0.32316
C         -1.63684       -0.51307        1.59831
H         -2.41423       -0.16173        2.28292
H         -0.66978       -0.36609        2.08476
H         -1.80260       -1.58050        1.42855
C         -3.16336        0.18721       -0.27038
H         -3.85593        0.71107        0.39310
H         -3.49091       -0.85243       -0.34508
H         -3.21719        0.65611       -1.25907
N         -0.76417       -0.19757       -0.76292
C         -1.09415       -1.54693       -1.33074
H         -0.28088       -1.83202       -1.99636
H         -2.02226       -1.46851       -1.89204
H         -1.19556       -2.27187       -0.52525
C          0.65617       -0.10085       -0.37488
C          1.23867       -1.10107        0.39608
H          0.66449       -1.96299        0.71945
C          2.58107       -0.97977        0.74560
H          3.04452       -1.75305        1.34894
C          3.32422        0.11998        0.32141
H          4.37028        0.20575        0.59664
C          2.72739        1.10421       -0.46267
H          3.30283        1.95787       -0.80450
C          1.38533        0.99622       -0.81767
H          0.91008        1.75564       -1.43319
H         -0.89378        0.46577       -1.53887
