31
id_1046_cb.log	Energy: -257369.5310428
C         -5.21680        1.08144        0.14632
H         -6.23434        0.81012       -0.15136
H         -4.97011        2.03558       -0.33227
H         -5.21601        1.24350        1.22986
C         -4.21039        0.00284       -0.24215
H         -4.24463       -0.16157       -1.32692
H         -4.49100       -0.95011        0.22476
C         -2.78267        0.35908        0.16569
H         -2.74676        0.52142        1.25226
H         -2.50144        1.31473       -0.29879
C         -1.76313       -0.70973       -0.21972
H         -1.79458       -0.86547       -1.30740
H         -2.04999       -1.66698        0.23767
C         -0.33660       -0.35906        0.19767
H         -0.29874       -0.22605        1.28866
H         -0.06389        0.60916       -0.24227
C          0.67843       -1.42363       -0.21645
H          0.70639       -1.48608       -1.31326
H          0.33036       -2.40176        0.14088
C          2.09245       -1.17446        0.31132
H          2.73939       -2.00899        0.00998
H          2.07509       -1.17701        1.41010
C          2.71666        0.13274       -0.17558
H          2.15586        0.99170        0.21608
H          2.65248        0.18683       -1.27230
C          4.17639        0.27275        0.24381
H          4.75274       -0.56660       -0.16170
H          4.24864        0.19999        1.33512
N          4.83110        1.51764       -0.17305
H          4.27598        2.29178        0.19287
H          4.73093        1.59046       -1.18605
