20
id_1929_cb.log	Energy: -276313.1973758
C         -1.07817        1.26334       -0.70963
H         -1.64683        2.17006       -0.93592
H         -0.44689        1.05104       -1.58219
C         -0.21520        1.46468        0.53743
H          0.52141        2.25563        0.37019
H         -0.85233        1.77513        1.37493
C          0.49960        0.15647        0.92329
C         -0.52351       -0.95326        1.12743
H         -0.05361       -1.91547        1.33513
H         -1.21803       -0.70610        1.93390
N         -1.33859       -1.12271       -0.11773
H         -2.00677       -1.88966        0.00394
H         -0.66753       -1.38851       -0.85750
C         -2.06772        0.12529       -0.51255
H         -2.62518       -0.10270       -1.42193
H         -2.77031        0.34212        0.29636
C          1.55142       -0.19981       -0.14295
O          1.30269       -1.16329       -0.92790
O          2.58613        0.51644       -0.18487
H          1.02712        0.30207        1.87121
