20
id_1291_cb.log	Energy: -565155.4842914
C          2.92999       -1.51832        0.00968
H          3.69508       -2.28842        0.01759
C          3.30684       -0.15566       -0.02798
H          4.35817        0.11203       -0.05647
C          2.34800        0.82830       -0.03554
H          2.65663        1.86767       -0.08412
C          0.96775        0.49960       -0.00290
C          0.58778       -0.87221        0.01579
C          1.60277       -1.86614        0.02733
H          1.30255       -2.91015        0.04678
C         -0.78502       -1.23967        0.01344
H         -1.06724       -2.28689        0.02103
C         -1.72101       -0.24377       -0.00409
C         -1.38580        1.12411       -0.00172
H         -2.16761        1.87707        0.00466
C         -0.05806        1.50682        0.00207
N          0.28932        2.85019       -0.05571
H          1.12296        3.09571        0.46689
H         -0.47685        3.47026        0.18541
Cl        -3.42402       -0.66277       -0.01107
