26
id_1741_ca.log	Energy: -481348.2055535
C          3.50533       -0.37268       -0.22843
H          3.82481       -1.35083        0.13831
H          4.27698        0.35707        0.03411
H          3.41407       -0.40977       -1.31725
C          2.19673        0.05147        0.41164
C          1.69283        1.40658       -0.07697
H          1.95404        1.57872       -1.12654
H          2.07545        2.22301        0.53475
N          0.22929        1.35640        0.02104
C         -0.32900        0.18657       -0.00232
S          0.81332       -1.11475        0.00862
C         -1.81809       -0.03857       -0.02298
C         -2.56501        1.27501       -0.26500
H         -2.40173        1.98980        0.54868
H         -3.63575        1.05945       -0.30647
H         -2.27307        1.73523       -1.21451
C         -2.21782       -0.62028        1.34601
H         -1.93961        0.05991        2.15648
H         -1.74928       -1.59268        1.52163
H         -3.30374       -0.75218        1.35643
C         -2.14518       -1.04403       -1.13779
H         -3.22826       -1.19427       -1.15882
H         -1.67497       -2.01655       -0.95894
H         -1.82436       -0.66884       -2.11404
H          2.27728        0.05013        1.50093
H         -0.32885        2.20872       -0.02492
