21
id_1967_cb.log	Energy: -276893.6027511
C         -0.24853        1.36688        0.01891
H          0.20056        2.34648       -0.12884
C         -1.58659        1.17746       -0.30609
H         -2.19069        1.98849       -0.70089
C         -2.16967       -0.07664       -0.11772
C         -1.41236       -1.12943        0.39217
H         -1.87442       -2.10256        0.53815
C         -0.07277       -0.91985        0.71368
H          0.51099       -1.74413        1.11695
C          0.53265        0.32755        0.53831
C          1.99767        0.53518        0.82799
H          2.32488       -0.15984        1.61113
H          2.16387        1.55259        1.20077
C          2.87068        0.31525       -0.41674
H          3.91124        0.54065       -0.16383
H          2.57009        1.02628       -1.19403
N          2.81963       -1.03257       -0.98596
H          1.84455       -1.24228       -1.20360
H          3.06175       -1.69021       -0.24335
O         -3.49438       -0.21705       -0.44650
H         -3.77174       -1.12948       -0.26182
