37
id_1339_cb.log	Energy: -424082.8413676
C         -3.80036       -2.08794       -0.42971
H         -4.76179       -1.66718       -0.74346
H         -3.90000       -2.44077        0.60221
H         -3.57922       -2.94622       -1.07149
C         -2.69690       -1.04601       -0.53031
C         -1.35341       -1.61899       -0.08285
H         -1.07644       -2.46684       -0.71828
H         -1.44062       -1.97798        0.95123
C         -0.27625       -0.54868       -0.14342
C         -0.69111        0.65649        0.69503
H         -0.74883        0.32488        1.73969
H          0.05693        1.45476        0.63905
C         -2.05939        1.21009        0.27101
N         -3.03371        0.10015        0.32432
H         -3.93014        0.47139        0.00371
C         -2.51081        2.26212        1.28096
H         -3.49863        2.65256        1.00922
H         -1.80864        3.10189        1.30381
H         -2.57429        1.83218        2.28537
C         -1.97532        1.86972       -1.11437
H         -1.26765        2.70600       -1.09721
H         -2.95868        2.26299       -1.39796
H         -1.65312        1.17670       -1.89666
O          0.92597       -1.13774        0.36870
C          2.12497       -0.52927        0.11855
C          2.29516        0.60068       -0.68606
H          1.45032        1.08814       -1.15902
C          3.57902        1.11404       -0.87940
H          3.70170        1.99294       -1.50519
C          4.68814        0.52183       -0.28473
H          5.68040        0.93171       -0.44150
C          4.50722       -0.60598        0.51836
H          5.36073       -1.08233        0.99128
C          3.23725       -1.12912        0.72100
H          3.08094       -2.00601        1.34158
H         -2.60131       -0.75231       -1.58933
H         -0.11271       -0.26951       -1.19129
