27
id_1165_ca.log	Energy: -372924.9409475
C          0.71003        2.53629       -1.17952
H          1.69877        2.88269       -0.88417
H          0.03020        3.38271       -1.27126
H          0.75444        1.97454       -2.11142
N          0.16035        1.64153       -0.11288
C          0.15172        2.32078        1.22283
H         -0.41726        3.24485        1.12176
H          1.18265        2.53121        1.50668
H         -0.32054        1.65151        1.94130
C          0.83208        0.33010       -0.03882
C          2.21762        0.32410        0.04601
H          2.77075        1.25737        0.05602
C          2.90087       -0.88581        0.12205
H          3.98326       -0.88141        0.19057
C          2.19881       -2.08697        0.10837
H          2.72709       -3.03223        0.16474
C          0.81330       -2.07177        0.02694
H          0.25005       -2.99816        0.02022
C          0.10389       -0.86852       -0.03846
C         -1.38558       -1.00037       -0.09481
O         -1.95341       -2.04821       -0.31033
O         -2.03704        0.14292        0.14009
C         -3.47410        0.07706        0.08294
H         -3.83825       -0.60710        0.85016
H         -3.81672        1.09115        0.27478
H         -3.78910       -0.25952       -0.90549
H         -0.82607        1.46464       -0.34704
