38
id_1241_ca.log	Energy: -578489.0295303
C          2.17061        3.47321       -0.84459
H          2.75294        4.32795       -1.17617
C          2.52758        2.78577        0.31688
H          3.39385        3.09868        0.89274
C          1.77983        1.69007        0.74110
H          2.08524        1.15193        1.63457
C          0.65210        1.27005        0.02401
C          0.31522        1.95029       -1.14923
H         -0.53555        1.62899       -1.74270
C          1.06707        3.04554       -1.57916
H          0.78504        3.56115       -2.49276
C         -0.08157       -0.01337        0.44528
C         -1.53113       -0.08959       -0.08349
C         -2.36064        1.02930        0.07019
H         -1.95605        1.94789        0.48852
C         -3.70041        0.98171       -0.30719
H         -4.32371        1.86286       -0.18608
C         -4.23767       -0.19319       -0.83499
H         -5.28118       -0.23235       -1.13346
C         -3.42701       -1.31889       -0.96462
H         -3.83636       -2.24460       -1.35862
C         -2.08491       -1.27068       -0.58323
H         -1.47819       -2.16596       -0.67323
C          0.82093       -1.16623       -0.02060
C          1.68241       -1.83517        0.85255
H          1.67713       -1.61074        1.91561
C          2.57428       -2.79741        0.37322
H          3.23318       -3.30763        1.06988
C          2.62219       -3.09748       -0.98575
H          3.31401       -3.84749       -1.35768
C          1.77996       -2.41737       -1.86809
H          1.81559       -2.63156       -2.93235
C          0.89463       -1.45602       -1.38927
H          0.25572       -0.92117       -2.08837
C         -0.31823       -0.04229        1.96490
O         -0.22575        0.91168        2.70924
O         -0.75210       -1.23682        2.38254
H         -0.95029       -1.18632        3.33844
