16
id_1540_cb.log	Energy: -309086.0389352
C         -1.84508       -1.63211        0.00000
H         -2.58482       -2.42955        0.00000
C         -0.50134       -1.94673        0.00000
H         -0.14595       -2.97298        0.00000
C          0.42590       -0.87805       -0.00000
C          1.82856       -1.08106       -0.00000
H          2.21754       -2.09853       -0.00000
N          2.70541       -0.09989       -0.00000
C          2.18403        1.15814       -0.00000
H          2.90914        1.96683       -0.00000
N          0.91570        1.48750       -0.00000
C          0.00000        0.47686       -0.00000
C         -1.42072        0.80837        0.00000
C         -2.29379       -0.29818        0.00000
H         -3.36199       -0.09332        0.00000
O         -1.83089        2.03385        0.00000
