27
id_1204_ca.log	Energy: -373422.7050589
C         -3.96097       -0.46267        0.00000
H         -4.96864       -0.86596        0.00001
C         -3.77605        0.95386        0.00000
H         -4.64663        1.60217        0.00000
C         -2.52181        1.49091       -0.00000
H         -2.37341        2.56722       -0.00000
C         -1.36775        0.64509       -0.00000
C         -0.07191        1.17299       -0.00001
H          0.04136        2.25453       -0.00001
C          1.04228        0.33216       -0.00000
C          0.86239       -1.09362       -0.00000
C          2.01199       -1.94764       -0.00000
H          1.85106       -3.02181       -0.00000
C          3.27270       -1.43105        0.00000
H          4.14010       -2.08149        0.00000
C          3.47019       -0.01792        0.00000
H          4.47487        0.39438        0.00000
C          2.39148        0.80585        0.00000
N          2.60160        2.25748        0.00000
H          2.18259        2.70424       -0.82869
H          3.60451        2.48544       -0.00002
C         -0.43283       -1.61365       -0.00000
H         -0.57057       -2.69228       -0.00000
C         -1.55333       -0.77813       -0.00000
C         -2.88526       -1.30166        0.00000
H         -3.01584       -2.38026        0.00000
H          2.18262        2.70425        0.82871
