28
id_1780_ca.log	Energy: -303209.2837063
C         -0.64297       -1.01566       -0.02756
H          0.00768       -1.88549       -0.04898
C         -2.01978       -1.20566       -0.03445
H         -2.44807       -2.20334       -0.06048
C         -2.84273       -0.08832       -0.01077
C         -2.33611        1.19988        0.01664
H         -3.00484        2.05549        0.03046
C         -0.95390        1.36854        0.02372
H         -0.54228        2.37346        0.04315
C         -0.08892        0.27136        0.00361
C          1.40568        0.47339        0.01166
H          1.60610        1.55259        0.03765
C          2.15041       -0.12321       -1.19381
H          1.83492       -1.16546       -1.32659
H          1.94273        0.41033       -2.12586
C          3.62850       -0.06189       -0.77446
H          4.21392       -0.86339       -1.23236
H          4.06820        0.88535       -1.10129
C          3.62622       -0.14142        0.77699
H          4.11353        0.74109        1.20170
H          4.16833       -1.01582        1.14628
C          2.14311       -0.18292        1.19135
H          1.94653        0.31972        2.14267
H          1.80440       -1.22161        1.28761
N         -4.30077       -0.28014        0.00898
H         -4.79176        0.53524       -0.37974
H         -4.58086       -1.10221       -0.54131
H         -4.65029       -0.41960        0.96674
