20
id_1051_cb.log	Energy: -182657.2295387
C         -1.87129        0.02673        0.29671
H         -1.85645        0.02229        1.39551
H         -2.92310        0.04428       -0.00954
C         -1.14767        1.27653       -0.20795
H         -1.62103        2.18144        0.18852
H         -1.23449        1.32428       -1.30238
C          0.33334        1.24003        0.17635
H          0.42840        1.26003        1.27266
H          0.85610        2.12476       -0.20836
C          1.02651       -0.02485       -0.33735
H          0.97591       -0.01773       -1.43531
C          0.29339       -1.26805        0.16015
H          0.78058       -2.16475       -0.23888
H          0.38904       -1.30891        1.25608
C         -1.18909       -1.24222       -0.21846
H         -1.28009       -1.27842       -1.31288
H         -1.69283       -2.13313        0.17215
N          2.44593       -0.11054        0.03107
H          2.48936       -0.08654        1.05197
H          2.89597        0.75712       -0.26370
