32
id_1387_cb.log	Energy: -362301.7805169
C         -2.04757       -0.78024       -0.96060
H         -1.56551       -1.17641       -1.84986
C         -2.93983       -1.57051       -0.24295
H         -3.14875       -2.58519       -0.57280
N         -3.58151       -1.16268        0.85755
C         -3.32776        0.08893        1.26469
H         -3.85451        0.41847        2.15676
C         -2.45472        0.95357        0.61826
H         -2.30121        1.95769        1.00391
C         -1.78626        0.52021       -0.53003
C         -0.81543        1.41779       -1.25102
H         -1.29728        2.38006       -1.45797
H         -0.55536        0.97860       -2.21830
C          0.44258        1.71618       -0.42886
H          0.15315        2.29522        0.45583
H          1.10306        2.36531       -1.03398
N          1.16345        0.53340        0.03762
C          1.66419       -0.25228       -1.09364
H          0.81651       -0.57776       -1.70322
H          2.31127        0.37523       -1.73897
C          2.44680       -1.47559       -0.62633
H          1.76864       -2.13966       -0.07567
H          2.80462       -2.02688       -1.50224
C          3.60921       -1.06829        0.27671
H          4.12941       -1.95056        0.66394
H          4.33733       -0.49281       -0.31113
C          3.08806       -0.19706        1.41777
H          3.91287        0.18432        2.02893
H          2.44194       -0.79455        2.07281
C          2.28954        0.97728        0.86546
H          2.96512        1.62737        0.27468
H          1.89225        1.58659        1.68426
