56
id_1435_ca.log	Energy: -689692.4391140
C          2.60358       -1.65248        2.74819
H          3.37189       -1.49345        3.50877
H          3.08300       -2.07105        1.85702
H          1.88591       -2.38317        3.13060
C          1.89962       -0.32988        2.42583
H          2.60733        0.40001        2.02726
H          1.46397        0.08680        3.34076
C          0.75171       -0.56467        1.46289
O         -0.17864       -1.27966        1.79270
C          0.84557        0.01039        0.02684
C          2.03924       -0.79715       -0.52624
C          1.85283       -2.12772       -0.92444
H          0.85888       -2.56414       -0.93488
C          2.93197       -2.92148       -1.30387
H          2.75782       -3.94748       -1.61274
C          4.22588       -2.40636       -1.27826
H          5.06854       -3.02536       -1.56969
C          4.42721       -1.09066       -0.86970
H          5.43005       -0.67623       -0.83691
C          3.34600       -0.29574       -0.49489
H          3.53127        0.72221       -0.16819
C          1.07764        1.52116        0.04595
C          0.65903        2.29775        1.13211
H          0.22304        1.82478        2.00965
C          0.78280        3.68613        1.11206
H          0.45428        4.26510        1.96945
C          1.32344        4.32390       -0.00046
H          1.42228        5.40471       -0.01764
C          1.73827        3.56330       -1.09238
H          2.16115        4.04851       -1.96660
C          1.61627        2.17688       -1.06884
H          1.95388        1.59726       -1.92318
C         -0.47690       -0.30406       -0.73821
C         -0.38836       -0.07043       -2.24710
H          0.44625       -0.62059       -2.68898
H         -0.26664        0.99198       -2.47683
H         -1.30188       -0.41526       -2.74416
C         -1.63532        0.51169       -0.14987
H         -1.67427        1.50761       -0.59879
H         -1.58613        0.61961        0.93536
N         -2.96360       -0.13426       -0.42930
C         -3.24596       -1.29347        0.48474
H         -2.45892       -2.03690        0.36027
H         -3.22258       -0.89347        1.50127
C         -4.60699       -1.87811        0.15565
H         -4.82708       -2.68321        0.85832
H         -4.60701       -2.28602       -0.86548
O         -5.62656       -0.90325        0.28977
C         -5.40669        0.16559       -0.61381
H         -5.42328       -0.20655       -1.64844
H         -6.21948        0.88157       -0.48229
C         -4.08566        0.85827       -0.33341
H         -4.05431        1.26368        0.68080
H         -3.89306        1.64952       -1.05913
H         -0.69223       -1.36106       -0.56178
H         -2.95679       -0.49345       -1.39524
