46
id_16_cb.log	Energy: -532040.1800725
C         -1.76938        3.99940        0.38842
H         -0.75925        3.98198        0.81290
H         -2.47578        4.13887        1.21397
H         -1.84369        4.87151       -0.26738
C         -2.06594        2.70983       -0.37138
H         -1.34830        2.58330       -1.19123
H         -3.06071        2.77519       -0.82515
C         -1.97553        1.49788        0.54878
H         -2.71968        1.58585        1.36102
H         -0.99180        1.51069        1.03111
N         -2.13817        0.21299       -0.15144
C         -3.56640        0.00569       -0.44397
H         -3.90811        0.83101       -1.07361
H         -4.14675        0.05064        0.49673
C         -3.84380       -1.32378       -1.13018
H         -4.91909       -1.40671       -1.31771
H         -3.33539       -1.34883       -2.10177
C         -3.34654       -2.47130       -0.25795
H         -3.91480       -2.48911        0.68126
H         -3.49515       -3.43728       -0.75058
C         -1.86837       -2.25701        0.04361
H         -1.29472       -2.31865       -0.89030
H         -1.47861       -3.02088        0.72396
C         -1.61599       -0.87727        0.67650
C         -0.10740       -0.78148        0.87605
O          0.42816       -1.27258        1.87135
N          0.58089       -0.22187       -0.14522
H          0.02255        0.28413       -0.82886
C          1.99827       -0.10450       -0.18424
C          2.55773        1.18225       -0.24469
C          3.94519        1.30155       -0.31259
H          4.38727        2.29297       -0.35875
C          4.75767        0.17030       -0.31065
H          5.83708        0.27637       -0.35924
C          4.18417       -1.09470       -0.25592
H          4.81469       -1.97965       -0.27064
C          2.79634       -1.25827       -0.20246
C          2.19855       -2.63890       -0.18518
H          2.89899       -3.36028       -0.61309
H          1.26598       -2.67536       -0.75699
H          1.96340       -2.95551        0.83590
C          1.67403        2.40061       -0.21821
H          0.98202        2.41843       -1.06850
H          2.27574        3.31184       -0.25304
H          1.06784        2.42271        0.69433
H         -2.06362       -0.86225        1.68590
