33
id_1283_cb.log	Energy: -526824.1944856
C         -5.32122        0.14584       -0.33368
H         -6.40632        0.18606       -0.34543
C         -4.58621        1.11079       -1.02422
H         -5.10330        1.89470       -1.56914
C         -3.19004        1.07726       -1.01482
H         -2.61651        1.82908       -1.54985
C         -2.55149        0.07057       -0.30019
C         -3.28326       -0.89536        0.39543
C         -4.67351       -0.86566        0.37926
H         -5.24879       -1.61086        0.92219
C         -2.35178       -1.86808        1.08148
H         -2.69483       -2.15854        2.07822
H         -2.26208       -2.78545        0.48635
C         -1.01544       -1.10131        1.10338
H         -0.14253       -1.75801        1.11479
H         -0.97519       -0.45870        1.99085
C         -1.06765       -0.18303       -0.14128
N         -0.31473        1.05882       -0.05195
H         -0.77158        1.74792        0.53965
C          1.06086        1.03583        0.11393
C          1.71648        2.17734        0.61767
H          1.11753        3.03602        0.90853
C          3.09637        2.21981        0.74406
H          3.56914        3.11335        1.13750
C          3.88406        1.13017        0.37608
H          4.96182        1.14305        0.46908
C          3.21943        0.01599       -0.11226
C          1.83927       -0.07044       -0.25029
H          1.39490       -0.98028       -0.63167
N          4.01601       -1.15142       -0.50037
O          3.43449       -2.14209       -0.91538
O          5.23083       -1.08504       -0.39333
H         -0.70916       -0.73141       -1.02253
