23
id_1594_cb.log	Energy: -441136.7085830
C          3.46056       -0.30941       -1.10521
H          2.85342       -0.85585       -1.83665
H          4.45348       -0.76636       -1.06590
H          3.56185        0.72357       -1.44921
C          2.79596       -0.36888        0.26891
C          1.44927        0.34078        0.21742
C          1.40913        1.74121        0.24520
H          2.34199        2.29315        0.33793
C          0.20514        2.42998        0.16254
H          0.19597        3.51481        0.19056
C         -0.99585        1.72944        0.04868
H         -1.94127        2.25683       -0.01388
C         -0.95900        0.34126        0.02060
C          0.24901       -0.35430        0.10499
H          0.24099       -1.44132        0.08848
C         -2.22096       -0.45961       -0.08230
F         -2.18348       -1.31912       -1.11698
F         -3.30920        0.30563       -0.24541
F         -2.42812       -1.20848        1.01686
N          2.76271       -1.76047        0.71802
H          2.27212       -2.31268        0.01339
H          2.18809       -1.82254        1.55854
H          3.42191        0.18851        0.97532
