17
id_1914_cb.log	Energy: -439169.2805563
C          0.05288        2.37649       -0.13882
H          0.07012        3.45854       -0.20480
C         -1.16466        1.68651       -0.08034
H         -2.09911        2.24049       -0.09212
C         -1.22171        0.30109       -0.01766
C         -0.02742       -0.44593        0.02282
C          1.19294        0.26543       -0.01257
C          1.23277        1.66328       -0.10250
H          2.19406        2.16200       -0.13492
N          2.45976       -0.42524        0.04862
O          2.46530       -1.65741        0.14545
O          3.49324        0.22222        0.00408
O         -0.12647       -1.78165        0.12035
H          0.77107       -2.17138        0.16150
C         -2.58549       -0.37653       -0.00761
O         -2.76670       -1.33658       -0.80041
O         -3.44415        0.11154        0.77430
