28
id_1041_cb.log	Energy: -232715.6139843
C          4.80146        0.33268       -0.08926
H          5.70974       -0.21562        0.17903
H          4.80328        1.27728        0.46573
H          4.85796        0.57435       -1.15635
C          3.54481       -0.47558        0.21862
H          3.52045       -0.72910        1.28635
H          3.57545       -1.42834       -0.32560
C          2.26387        0.27002       -0.14846
H          2.28667        0.52392       -1.21767
H          2.23223        1.22475        0.39524
C          0.99744       -0.52657        0.15488
H          0.97353       -0.77672        1.22487
H          1.03185       -1.48285       -0.38543
C         -0.28348        0.21746       -0.21677
H         -0.26772        0.45441       -1.29038
H         -0.30148        1.17861        0.31433
C         -1.54592       -0.57876        0.10583
H         -1.60176       -0.75564        1.19080
H         -1.47718       -1.56667       -0.37039
C         -2.84660        0.09474       -0.34404
C         -4.04460       -0.79064       -0.03053
H         -3.93755       -1.77654       -0.49323
H         -4.97236       -0.33600       -0.39002
H         -4.13384       -0.93417        1.05360
N         -3.07330        1.42160        0.24996
H         -2.27037        2.01172        0.03337
H         -3.04418        1.30419        1.26525
H         -2.79343        0.24112       -1.43085
