17
id_1189_cb.log	Energy: -391826.9221038
C         -1.42599        1.86705       -0.00152
H         -1.73089        2.90877       -0.00122
C         -0.07062        1.54311       -0.02574
H          0.68892        2.31648       -0.04341
C          0.28371        0.19670       -0.03539
C         -0.67263       -0.81305       -0.01895
H         -0.37230       -1.85705       -0.03214
C         -2.03377       -0.48327        0.00830
C         -2.39601        0.87331        0.01547
H         -3.45015        1.13661        0.03119
N         -3.00210       -1.47735        0.08644
H         -2.70833       -2.36889       -0.29813
H         -3.90582       -1.19888       -0.28064
C          1.73248       -0.18660       -0.00369
F          1.97206       -1.32827       -0.67011
F          2.17259       -0.38274        1.25397
F          2.52093        0.75778       -0.54070
