27
id_1780_cb.log	Energy: -302926.4607622
C          0.70213       -1.01395       -0.02295
H          0.05325       -1.88723       -0.03674
C          2.07853       -1.20389       -0.03192
H          2.49204       -2.20921       -0.05369
C          2.95114       -0.10582       -0.01234
C          2.39802        1.17966        0.01899
H          3.05890        2.04272        0.03757
C          1.01701        1.35400        0.02747
H          0.61238        2.36339        0.05452
C          0.13817        0.26814        0.00610
C         -1.35767        0.47173        0.01453
H         -1.55743        1.55210        0.04374
C         -2.10407       -0.18329        1.18930
H         -1.77111       -1.22454        1.28140
H         -1.90582        0.31260        2.14425
C         -3.58642       -0.13251        0.77539
H         -4.13813       -0.99994        1.14754
H         -4.06666        0.75632        1.19556
C         -3.58639       -0.05892       -0.77698
H         -4.03016        0.88507       -1.10821
H         -4.16940       -0.86423       -1.23179
C         -2.10699       -0.11672       -1.19246
H         -1.89831        0.41981       -2.12299
H         -1.79043       -1.15831       -1.33040
N          4.33564       -0.29103       -0.08836
H          4.86064        0.47415        0.32274
H          4.63998       -1.17615        0.30427
