22
id_1482_ca.log	Energy: -266841.5236959
C         -3.20445       -0.21715        0.75841
H         -4.28019       -0.33814        0.59484
H         -3.04223        0.73737        1.27072
H         -2.86683       -1.02031        1.42241
C         -2.44256       -0.25674       -0.57068
H         -2.81077        0.54276       -1.22339
H         -2.63950       -1.20867       -1.07560
C         -0.95546       -0.09723       -0.36355
C         -0.12555       -1.21543       -0.24801
H         -0.55348       -2.21107       -0.35329
C          1.24700       -1.07884       -0.00381
C          1.78984        0.20106        0.11976
H          2.85291        0.34020        0.30063
C          0.96397        1.31983        0.00611
C         -0.40116        1.18103       -0.23428
H         -1.02806        2.06676       -0.32441
O          1.55888        2.55475        0.13487
H          0.89093        3.25383        0.03499
C          2.12253       -2.29625        0.14970
H          1.78724       -3.10786       -0.50269
H          2.08832       -2.66760        1.18066
H          3.16561       -2.06696       -0.08563
