34
id_1642_cb.log	Energy: -422695.7709007
C         -3.64034       -1.99510       -1.00712
H         -4.58719       -2.52199       -0.85706
H         -2.82659       -2.71826       -0.87303
H         -3.60594       -1.62707       -2.03653
C         -3.49679       -0.85145       -0.01139
H         -4.31261       -0.13526       -0.17366
C         -3.58247       -1.37182        1.42368
H         -3.55397       -0.55822        2.15458
H         -2.74312       -2.04808        1.62854
H         -4.51296       -1.92803        1.57659
N         -2.24714       -0.12934       -0.29800
H         -1.47449       -0.78809       -0.17502
C         -2.00779        1.01736        0.57667
H         -2.92426        1.61799        0.60380
H         -1.74957        0.74950        1.61067
C         -0.88491        1.86801       -0.03073
C          0.45224        1.15148        0.06124
C          1.10417        1.05138        1.29764
H          0.66535        1.52114        2.17538
C          2.30384        0.36914        1.42019
H          2.81519        0.29445        2.37489
C          2.88165       -0.23584        0.29673
C          2.24816       -0.14767       -0.94152
H          2.67760       -0.60533       -1.82506
C          1.03907        0.54628       -1.04500
H          0.55560        0.62205       -2.01424
O          4.06587       -0.88475        0.51256
C          4.67875       -1.50172       -0.61007
H          4.92087       -0.76367       -1.38216
H          4.03257       -2.27667       -1.03598
H          5.59737       -1.95655       -0.23971
O         -1.23128        2.18928       -1.36743
H         -1.67326        1.38096       -1.69428
H         -0.82098        2.81003        0.52531
