21
id_1512_cb.log	Energy: -323951.6127219
C          1.60696        2.12506        0.09581
H          1.25926        2.63017       -0.80100
H          2.68633        2.22140        0.19108
H          1.11627        2.54550        0.96948
N          1.29885        0.67607        0.00938
C          2.34614       -0.14373       -0.01715
H          3.32389        0.32130       -0.00664
C          2.20816       -1.53571       -0.04492
H          3.09993       -2.15012       -0.06861
C          0.94756       -2.06640       -0.02174
H          0.79403       -3.14223       -0.02384
C         -0.19205       -1.22169        0.00327
C         -0.00751        0.19611       -0.00129
C         -1.16129        1.09273       -0.03142
C         -2.41789        0.44633        0.01751
H         -3.29099        1.09369        0.01287
C         -2.57899       -0.94155        0.04402
H         -3.58370       -1.35611        0.06860
C         -1.48610       -1.78458        0.02789
H         -1.58869       -2.86484        0.03223
O         -1.06228        2.37116       -0.10896
