12
id_1497_ca.log	Energy: -202937.9754015
C          1.13440        1.19935        0.00000
H          1.67451        2.14146        0.00000
C          1.82199       -0.01739        0.00000
H          2.90546       -0.05866        0.00000
C          1.07450       -1.18567        0.00000
H          1.56540       -2.15472        0.00000
N         -0.26843       -1.21323       -0.00000
C         -0.89791       -0.04632       -0.00001
C         -0.25158        1.19578       -0.00000
H         -0.83060        2.11402        0.00000
O         -2.25802       -0.14549        0.00000
H         -2.65995        0.73992        0.00001
