22
id_1303_cb.log	Energy: -405051.8478388
C         -2.33767        2.06318       -0.02872
H         -3.23966        2.66560       -0.01781
C         -1.07376        2.67501       -0.11538
H         -1.00059        3.75550       -0.18963
C          0.07752        1.92331       -0.10533
H          1.03197        2.42218       -0.17647
C          0.03064        0.50557       -0.01630
C         -1.25667       -0.11521        0.01754
C         -2.41917        0.69389        0.02996
H         -3.40072        0.23695        0.09223
C         -1.37153       -1.55710        0.02889
C         -0.21105       -2.33609        0.00696
H         -0.29782       -3.41749        0.01645
C          1.03637       -1.73823       -0.01536
H          1.92585       -2.35636       -0.01498
C          1.17722       -0.35874       -0.01321
N          2.52295        0.13067        0.02818
O          3.43889       -0.62531       -0.30081
O          2.74654        1.27796        0.41245
N         -2.57658       -2.16344        0.09030
H         -3.42911       -1.66575       -0.12146
H         -2.60947       -3.16605       -0.04505
