12
id_1976_cb.log	Energy: -769343.8644439
C         -1.65321       -0.85166        0.00000
H         -2.69341       -1.16528        0.00000
C         -0.63804       -1.79812       -0.00000
H         -0.89056       -2.85570       -0.00000
C          0.74738       -1.45928       -0.00000
C          0.99963       -0.05371       -0.00000
C         -0.00000        0.91100        0.00000
H          0.25877        1.96575        0.00000
C         -1.32918        0.50347        0.00000
Cl        -2.60406        1.71274        0.00000
Cl         2.66897        0.48482       -0.00000
O          1.68277       -2.35169       -0.00000
