36
id_2086_cb.log	Energy: -434161.7064659
C         -3.47532        2.80586        0.82351
H         -3.84434        3.71910        0.34830
H         -2.57467        3.06271        1.39216
H         -4.23483        2.46647        1.53589
C         -3.17334        1.72617       -0.21007
H         -2.41669        2.08415       -0.91885
H         -4.07512        1.50143       -0.79387
C         -2.67158        0.44734        0.44231
H         -3.41627        0.07875        1.16708
H         -1.75981        0.66423        1.01468
N         -2.34499       -0.57214       -0.55890
H         -3.19972       -0.82252       -1.05479
C         -1.78882       -1.78107        0.03732
C         -1.91616       -2.96653       -0.91741
H         -1.41692       -2.74609       -1.86604
H         -2.97140       -3.17562       -1.11582
H         -1.46087       -3.85694       -0.47755
C         -0.30916       -1.60166        0.37937
O          0.24835       -2.35879        1.17501
N          0.29938       -0.59601       -0.29184
H         -0.34752       -0.03578       -0.84418
C          1.62105       -0.12945       -0.13589
C          2.66988       -0.99126        0.19197
H          2.47130       -2.04531        0.33677
C          3.96228       -0.48926        0.32431
H          4.77212       -1.16480        0.58153
C          4.21370        0.86354        0.11778
H          5.22022        1.25714        0.21738
C          3.16193        1.71352       -0.22018
H          3.35017        2.77162       -0.38209
C          1.85628        1.24183       -0.34867
C          0.72240        2.17293       -0.69055
H          1.08314        3.20088       -0.76789
H         -0.06199        2.14221        0.07614
H          0.25320        1.91138       -1.64737
H         -2.27636       -2.03732        0.99080
