11
id_2294_ca.log	Energy: -212981.0570804
C          1.15879        1.15659        0.00000
H          1.76327        2.05729        0.00001
C         -0.21248        1.20692       -0.00001
H         -0.77194        2.13734       -0.00000
C         -0.88025       -0.03005       -0.00002
N         -0.26161       -1.19972       -0.00001
N          1.07103       -1.23811        0.00000
C          1.76424       -0.11024        0.00000
H          2.84284       -0.22193        0.00001
O         -2.23078       -0.12573        0.00001
H         -2.63571        0.75870        0.00003
