29
id_2047_cb.log	Energy: -303676.5998271
C         -2.67123        1.31634        0.59423
H         -3.24073        1.78720       -0.21591
H         -1.81850        1.96218        0.83401
H         -3.31315        1.27717        1.48140
C         -2.21767       -0.09222        0.20130
C         -1.40211       -0.70238        1.34396
H         -2.02132       -0.78328        2.24511
H         -0.53128       -0.08583        1.59110
H         -1.04629       -1.70659        1.08525
C         -3.44684       -0.96464       -0.06744
H         -3.15201       -1.98141       -0.35252
H         -4.05655       -0.54783       -0.87756
H         -4.07450       -1.03277        0.82796
C         -1.40375       -0.03948       -1.10675
H         -2.05607        0.35258       -1.89624
H         -1.13196       -1.05527       -1.40771
N         -0.20130        0.78449       -1.09344
H         -0.39700        1.75064       -0.85113
C          1.00081        0.34522       -0.54347
C          1.40456       -1.00081       -0.57393
H          0.75174       -1.75994       -0.99131
C          2.64740       -1.37449       -0.07068
H          2.93257       -2.42226       -0.10521
C          3.52262       -0.43304        0.46809
H          4.48898       -0.73477        0.85817
C          3.12823        0.90468        0.49724
H          3.78902        1.65911        0.91488
C          1.88796        1.29004        0.00357
H          1.58625        2.33436        0.03711
