18
id_2163_cb.log	Energy: -335524.2708192
C          3.47584       -0.61135        0.00000
H          3.93153       -1.60069        0.00001
H          3.77319       -0.05873        0.89405
H          3.77319       -0.05874       -0.89404
O          2.06372       -0.84142       -0.00000
C          1.27913        0.26326       -0.00000
O          1.78756        1.37953       -0.00000
C         -0.15454       -0.04601       -0.00000
C         -0.56811       -1.39804        0.00000
H          0.19088       -2.17372        0.00001
C         -1.90068       -1.75924        0.00001
H         -2.19088       -2.80490        0.00001
C         -2.87445       -0.73872        0.00000
H         -3.93037       -1.00060        0.00001
C         -2.50619        0.58781       -0.00000
H         -3.26059        1.37132       -0.00000
C         -1.13268        1.01359       -0.00000
O         -0.85088        2.26918       -0.00001
