20
id_2274_cb.log	Energy: -182650.7708775
C          2.37203       -0.00000        0.02892
H          2.87604       -0.88718       -0.36546
H          2.48793        0.00000        1.12746
H          2.87604        0.88718       -0.36546
N          0.97384       -0.00000       -0.37672
C          0.31984       -1.19663        0.15966
H          0.84712       -2.07699       -0.22287
H          0.41022       -1.21793        1.26403
C         -1.15481       -1.25053       -0.22168
H         -1.24051       -1.31888       -1.31328
H         -1.60440       -2.15583        0.19971
C         -1.88060        0.00000        0.27328
H         -2.92504        0.00000       -0.05548
H         -1.88558        0.00000        1.37188
C         -1.15481        1.25053       -0.22168
H         -1.60439        2.15583        0.19971
H         -1.24051        1.31888       -1.31328
C          0.31984        1.19663        0.15966
H          0.41022        1.21793        1.26403
H          0.84712        2.07699       -0.22287
