19
id_2161_ca.log	Energy: -392990.6169884
C          3.36494       -1.23491        0.00002
H          4.45433       -1.23144        0.00003
H          2.99553       -1.74353       -0.89671
H          2.99551       -1.74348        0.89678
O          2.97081        0.13381       -0.00001
C          1.63224        0.39297       -0.00001
C          1.26765        1.75469       -0.00001
H          2.05209        2.50581       -0.00001
C         -0.05682        2.12976       -0.00000
H         -0.34042        3.17718       -0.00000
C         -1.08366        1.17002        0.00000
C         -0.69987       -0.17966       -0.00000
C          0.65063       -0.57646       -0.00001
H          0.88107       -1.63377       -0.00001
N         -1.68841       -1.22857       -0.00000
O         -2.88475       -0.91682        0.00001
O         -1.32301       -2.39358       -0.00001
O         -2.35026        1.63335        0.00001
H         -2.97223        0.87669        0.00002
