15
id_298_ca.log	Energy: -194146.6806441
C          1.21870        1.70860       -0.00594
H          2.14868        2.26710       -0.01127
C          0.00000        2.36846       -0.00945
C         -1.21870        1.70860       -0.00594
H         -2.14868        2.26710       -0.01127
C         -1.19873        0.31817        0.00088
C          0.00000       -0.39053        0.00446
H          0.00000       -1.47412        0.00726
C          1.19873        0.31817        0.00088
I          3.03054       -0.74287        0.00016
I         -3.03054       -0.74287        0.00016
N         -0.00000        3.83646        0.00679
H         -0.83063        4.22016       -0.46471
H          0.83063        4.22016       -0.46471
H         -0.00000        4.19991        0.97088
