41
id_2118_ca.log	Energy: -519367.3051798
C         -3.39966        1.52229        1.95150
H         -2.44372        1.40559        2.47387
H         -4.05935        0.69478        2.22280
H         -3.86471        2.45135        2.29031
C         -3.17683        1.60993        0.45267
H         -4.12922        1.58772       -0.08324
C         -2.36114        2.82751        0.05050
H         -2.18140        2.84765       -1.02901
H         -1.39671        2.83205        0.57064
H         -2.90642        3.73323        0.32606
N         -2.42671        0.39233       -0.02439
H         -1.48421        0.39502        0.38957
C         -3.06937       -0.92985        0.23069
H         -3.03205       -1.13186        1.30163
H         -4.10869       -0.84142       -0.09231
C         -2.37015       -2.03631       -0.56070
C         -0.96317       -2.33943       -0.07377
H         -0.55538       -3.20126       -0.61353
H         -0.96318       -2.54686        1.00184
O         -0.18774       -1.17773       -0.35999
C          1.11571       -1.14497        0.04338
C          1.76020       -2.19513        0.64908
H          1.25093       -3.13405        0.83154
C          3.11393       -2.04821        1.04712
H          3.60765       -2.88873        1.52448
C          3.78998       -0.87552        0.84381
H          4.82434       -0.76402        1.15546
C          3.13910        0.22375        0.21713
C          1.78570        0.09546       -0.19966
C          1.14300        1.19166       -0.83234
H          0.11861        1.08662       -1.17548
C          1.81543        2.37365       -1.02719
H          1.31581        3.20714       -1.51113
C          3.15974        2.50990       -0.60608
H          3.67976        3.44918       -0.76620
C          3.80492        1.45872       -0.00332
H          4.83865        1.55318        0.31816
O         -2.37476       -1.71183       -1.94283
H         -1.49792       -1.36278       -2.17599
H         -2.96874       -2.94213       -0.42279
H         -2.28146        0.47914       -1.04041
