18
id_2137_cb.log	Energy: -397488.5594424
C          2.23618       -0.00000       -0.30492
H          2.21894        0.00000       -1.40478
H          3.29029       -0.00000       -0.00196
C          1.53283        1.25901        0.20568
H          2.01755        2.15740       -0.19648
H          1.63310        1.30699        1.30013
C          0.04480        1.25098       -0.16408
H         -0.05952        1.28228       -1.25968
H         -0.44916        2.14872        0.22696
C         -0.67612        0.00000        0.35231
H         -0.58053        0.00000        1.44952
C          0.04480       -1.25098       -0.16407
H         -0.44916       -2.14872        0.22696
H         -0.05953       -1.28228       -1.25968
C          1.53283       -1.25901        0.20568
H          1.63310       -1.30700        1.30013
H          2.01755       -2.15740       -0.19648
S         -2.46904       -0.00000       -0.06051
