23
id_260_ca.log	Energy: -479972.9617425
C          3.42148        0.72879        0.63836
H          4.08050       -0.12219        0.45702
H          3.85305        1.64001        0.21962
H          3.30735        0.86073        1.71982
C          2.05420        0.52539        0.05183
O          1.30008        1.42936       -0.23634
S          1.58678       -1.19134       -0.15877
C         -0.09805       -0.92528       -0.77540
H         -0.04175       -0.13858       -1.52941
H         -0.41187       -1.85496       -1.25549
C         -1.02762       -0.56769        0.37516
H         -0.63057        0.24242        0.99064
H         -1.20662       -1.44259        1.00264
N         -2.36620       -0.09602       -0.11614
C         -2.29407        1.26410       -0.72662
H         -1.61385        1.24916       -1.57620
H         -1.93913        1.95425        0.03970
H         -3.29468        1.54014       -1.05720
C         -3.36559       -0.11409        0.99180
H         -3.00389        0.54930        1.77835
H         -3.45742       -1.13451        1.36138
H         -4.31913        0.23946        0.60155
H         -2.68969       -0.75131       -0.83902
