13
id_281_cb.log	Energy: -297041.8421864
C          0.96277        2.13214       -0.00000
H          0.45689        2.53483       -0.88251
H          1.99683        2.48360       -0.00045
H          0.45769        2.53481        0.88297
C          0.94015        0.64053       -0.00001
C         -0.11871       -0.21633       -0.00001
O          0.38848       -1.49862        0.00001
C          1.71815       -1.34444        0.00002
H          2.32119       -2.24147        0.00003
N          2.11469       -0.11069        0.00001
C         -1.59991       -0.04405       -0.00001
O         -2.30164       -1.08986       -0.00008
O         -2.01811        1.14547        0.00007
