13
id_280_cb.log	Energy: -297043.7189574
C          3.05190       -0.67493        0.00000
H          3.58012       -0.31160        0.88650
H          3.58016       -0.31150       -0.88643
H          3.05828       -1.76535       -0.00006
C          1.65162       -0.19042        0.00001
N          0.54528       -0.86134       -0.00001
C         -0.46623        0.10131        0.00000
C          0.10424        1.32896        0.00004
H         -0.26491        2.34305        0.00006
O          1.45946        1.15846        0.00004
C         -1.93156       -0.21725       -0.00002
O         -2.26842       -1.43025       -0.00008
O         -2.71984        0.77039        0.00002
