18
id_215_cb.log	Energy: -600627.4927521
C         -0.72548        1.38243       -0.00001
H         -0.29121        2.37896       -0.00002
C         -2.11140        1.24412       -0.00001
H         -2.75589        2.11738       -0.00001
C         -2.65382       -0.03564        0.00000
C         -1.84342       -1.16983        0.00001
H         -2.28564       -2.16106        0.00001
C         -0.46254       -1.01319        0.00001
H          0.16178       -1.90155        0.00001
C          0.12009        0.26434       -0.00000
C          1.57495        0.48355       -0.00000
H          1.88535        1.52792       -0.00001
C          2.52917       -0.45694        0.00000
H          2.29218       -1.51836        0.00001
C          3.99547       -0.11860       -0.00000
O          4.34504        1.09596       -0.00001
O          4.79679       -1.10013        0.00001
Cl        -4.39289       -0.22890        0.00000
