40
id_2379_cb.log	Energy: -732413.7031407
C          3.77952        1.99064       -1.83515
H          3.15314        2.85143       -2.08577
H          3.47388        1.14526       -2.47686
H          4.81795        2.23892       -2.07126
N          3.65269        1.67844       -0.41580
C          4.48829        0.51832       -0.12145
H          5.51599        0.71988       -0.43552
H          4.13912       -0.38832       -0.64819
H          4.50077        0.30940        0.95061
C          2.24790        1.36849       -0.13914
H          1.64845        2.23872       -0.43448
H          1.91409        0.52221       -0.77023
C          1.96981        1.04624        1.32469
H          2.46307        1.78703        1.96410
H          2.38967        0.07132        1.58618
C          0.47614        1.10279        1.64959
H          0.14963        2.13986        1.54169
H          0.29744        0.81302        2.69484
N         -0.33730        0.32008        0.71758
C         -0.07495       -1.05976        0.57095
C          0.60318       -1.80371        1.54361
H          0.92327       -1.32730        2.46377
C          0.86761       -3.15618        1.33984
H          1.40857       -3.70981        2.10074
C          0.42877       -3.79927        0.18582
H          0.63056       -4.85385        0.03063
C         -0.28918       -3.08058       -0.76748
H         -0.65991       -3.56960       -1.66358
C         -0.52494       -1.72136       -0.58296
S         -1.36937       -0.76924       -1.82298
C         -2.28701        0.28497       -0.72522
C         -1.65097        0.75206        0.43701
C         -2.35050        1.62895        1.27384
H         -1.89576        1.97859        2.19413
C         -3.63292        2.05463        0.93371
H         -4.15169        2.74565        1.59067
C         -4.25392        1.58755       -0.22096
H         -5.25563        1.91352       -0.48016
C         -3.58135        0.68496       -1.04244
H         -4.05325        0.29988       -1.94167
