35
id_2101_ca.log	Energy: -1272461.9883821
C         -2.98311        3.34518       -0.69790
H         -2.67068        3.19093       -1.73446
H         -2.49376        4.24550       -0.31708
H         -4.06545        3.50054       -0.68076
C         -2.59740        2.15360        0.17524
C         -1.09751        1.89959        0.18584
C         -0.43310        1.56654       -1.00071
H         -0.98778        1.48637       -1.93269
C          0.93875        1.33350       -1.00425
H          1.47155        1.07966       -1.91589
C          1.62189        1.44139        0.19814
C          1.00446        1.77526        1.39232
H          1.58065        1.86439        2.30776
C         -0.37172        1.99758        1.37546
H         -0.88249        2.25699        2.29871
O          3.03072        1.26913        0.17524
S          3.67371       -0.10296        0.67758
O          2.85552       -0.73227        1.68736
O          5.07784        0.16235        0.87203
C          3.53748       -1.14364       -0.85456
F          4.25483       -2.24094       -0.66842
F          4.00780       -0.46946       -1.89010
F          2.27078       -1.46499       -1.06157
C         -3.29135        0.88684       -0.30187
O         -3.83659        0.76250       -1.38692
N         -3.24781       -0.15869        0.59990
H         -2.67764       -0.07296        1.44375
S         -3.69001       -1.72227        0.14039
O         -2.82275       -2.16718       -0.95143
O         -5.13221       -1.74153       -0.10007
C         -3.30148       -2.60071        1.62465
H         -3.89914       -2.18917        2.44012
H         -2.23071       -2.51138        1.81798
H         -3.57180       -3.64276        1.43470
H         -2.91977        2.33025        1.20800
