32
id_2292_cb.log	Energy: -681835.8067320
C         -4.72728       -1.51619       -0.00003
H         -4.82248       -2.14433        0.88919
H         -5.56662       -0.81168       -0.00004
H         -4.82245       -2.14433       -0.88924
C         -3.42092       -0.77121       -0.00001
C         -2.80923       -0.40710       -1.20483
H         -3.27463       -0.68586       -2.14585
C         -1.61718        0.30754       -1.21636
H         -1.15168        0.59489       -2.15393
C         -1.03540        0.66296        0.00002
C         -1.61712        0.30738        1.21638
H         -1.15158        0.59463        2.15397
C         -2.80916       -0.40725        1.20482
H         -3.27452       -0.68612        2.14583
S          0.51910        1.50947        0.00003
O          0.64043        2.24200        1.26040
O          0.64043        2.24205       -1.26030
N          1.72378        0.35822        0.00001
C          1.76840       -0.47538        1.21968
H          1.75655        0.17638        2.09471
H          0.89365       -1.14372        1.25539
C          3.04528       -1.30838        1.19505
H          3.91018       -0.63849        1.24427
H          3.06191       -1.94430        2.08330
N          3.17978       -2.14317       -0.00005
H          2.39576       -2.79874       -0.00006
C          3.04527       -1.30834       -1.19512
H          3.06187       -1.94423       -2.08340
H          3.91017       -0.63846       -1.24434
C          1.76839       -0.47532       -1.21971
H          0.89363       -1.14365       -1.25546
H          1.75655        0.17649       -2.09470
