14
id_2368_cb.log	Energy: -284581.4358572
C          0.66416        2.08190        0.00001
H          0.11909        2.39661       -0.88945
H          1.65555        2.53553        0.00001
H          0.11909        2.39660        0.88947
N          0.84844        0.63179        0.00000
C          2.07552        0.02716        0.00000
H          2.98839        0.60553        0.00000
C          1.83642       -1.32499       -0.00000
H          2.55824       -2.12982       -0.00001
N          0.49095       -1.56085       -0.00000
C         -0.08738       -0.36554       -0.00000
C         -1.57645       -0.14204       -0.00000
O         -2.30377       -1.17063        0.00001
O         -1.98245        1.05064       -0.00001
