42
id_2116_ca.log	Energy: -553963.2819798
C         -5.32700       -1.93329        0.38085
H         -6.03266       -2.68239        0.72621
C         -4.42800       -2.24039       -0.63849
H         -4.43045       -3.22795       -1.08878
C         -3.52278       -1.27846       -1.08171
H         -2.81752       -1.51237       -1.87502
C         -3.51610       -0.00424       -0.51093
C         -4.42290        0.30017        0.50855
H         -4.42291        1.29596        0.94615
C         -5.32324       -0.66242        0.95558
H         -6.02587       -0.41985        1.74641
C         -2.53589        1.03527       -0.97864
H         -2.06857        0.76004       -1.92685
H         -3.00683        2.01567       -1.07760
N         -1.40576        1.22361        0.00265
C         -0.53055        2.37123       -0.41336
H         -0.13839        2.12232       -1.40297
H         -1.16301        3.25767       -0.47566
C          0.59037        2.55762        0.59522
H          1.23423        3.37289        0.27085
H          0.17518        2.80670        1.57695
N          1.37612        1.33388        0.73056
C          0.54230        0.21381        1.16970
H          0.14229        0.44737        2.16133
H          1.12224       -0.70349        1.24375
C         -0.59499       -0.02524        0.18628
H         -0.21398       -0.29453       -0.80359
H         -1.26224       -0.80632        0.55249
C          2.42952        1.16812       -0.13180
O          2.74657        2.04278       -0.93960
C          3.24601       -0.08296       -0.02893
C          3.59916       -0.64541        1.20143
H          3.23923       -0.20402        2.12637
C          4.43162       -1.76024        1.24056
H          4.71287       -2.18854        2.19719
C          4.90544       -2.32091        0.05528
H          5.54983       -3.19388        0.08849
C          4.55879       -1.75748       -1.17198
H          4.93055       -2.19024       -2.09514
C          3.74088       -0.63284       -1.21400
H          3.47731       -0.17610       -2.16302
H         -1.82221        1.46239        0.91504
