10
id_2138_cb.log	Energy: -744843.3608470
C         -0.34506       -0.00004        1.81466
H          0.13024       -0.88875        2.23673
H         -1.40643       -0.00005        2.07291
H          0.13023        0.88867        2.23676
C         -0.16981       -0.00001        0.31296
C          1.31966        0.00001       -0.18360
O          1.50351        0.00006       -1.41988
O          2.18432       -0.00002        0.72197
Cl        -0.97603       -1.46576       -0.37142
Cl        -0.97605        1.46576       -0.37136
