31
id_2356_cb.log	Energy: -2011477.8488606
C         -1.77181        2.71118       -0.24335
H         -2.20407        3.69848       -0.11572
C         -0.43440        2.57576       -0.61641
H          0.17784        3.45826       -0.78007
C          0.12945        1.31178       -0.77850
C         -0.65779        0.17631       -0.55901
H         -0.22753       -0.81436       -0.68489
C         -1.98493        0.32975       -0.18732
C         -2.56073        1.58670       -0.02339
H         -3.59974        1.68307        0.27122
Br        -3.04795       -1.21848        0.10326
C          1.57606        1.12907       -1.17556
H          2.05542        2.10996       -1.32129
H          1.61508        0.60530       -2.13651
N          2.29608        0.32160       -0.18849
C          3.47273       -0.33635       -0.76484
H          4.01764        0.32669       -1.45471
H          4.15139       -0.59833        0.05288
C          3.05145       -1.62102       -1.46338
H          3.93313       -2.17296       -1.80033
H          2.43547       -1.40006       -2.34654
O          2.33952       -2.45214       -0.55737
H          1.76628       -1.83604       -0.06634
C          2.61531        1.08131        1.02569
H          3.60402        1.55918        0.95966
H          1.86891        1.87401        1.14669
C          2.52692        0.16432        2.23344
H          2.77046        0.71234        3.14780
H          3.23938       -0.66743        2.13463
O          1.20086       -0.32976        2.37524
H          0.90563       -0.54001        1.47149
