29
id_254_ca.log	Energy: -374157.1514286
C          5.25814        0.15025        0.00931
H          6.33493        0.28752        0.01378
C          4.40983        1.25922        0.01798
H          4.82701        2.26157        0.02947
C          3.03066        1.09073        0.01279
H          2.39074        1.96785        0.02086
C          2.46759       -0.19592       -0.00125
C          3.33159       -1.30035       -0.00947
H          2.90778       -2.30133       -0.01987
C          4.71336       -1.13144       -0.00453
H          5.36316       -2.00116       -0.01115
C          1.01851       -0.44233       -0.00598
H          0.74216       -1.49546       -0.00495
C          0.05853        0.49531       -0.01121
H          0.33252        1.54846       -0.01415
C         -1.38978        0.24796       -0.01093
C         -1.95457       -1.03860       -0.00337
H         -1.32005       -1.91850       -0.00175
C         -3.33121       -1.21267        0.00055
H         -3.76663       -2.20747        0.00498
C         -4.14778       -0.08916       -0.00424
C         -3.63210        1.19602       -0.01627
H         -4.29376        2.05701       -0.02357
C         -2.25106        1.35438       -0.01927
H         -1.83045        2.35548       -0.02956
N         -5.60570       -0.27154        0.02819
H         -6.09463        0.54795       -0.35477
H         -5.89609       -1.09128       -0.52061
H         -5.94710       -0.41027        0.98929
