21
id_2308_ca.log	Energy: -510754.1429122
C         -3.38577       -1.58500        0.00001
H         -4.15833       -2.34635        0.00001
C         -2.05425       -1.91425       -0.00000
H         -1.72640       -2.95032       -0.00000
C         -1.08518       -0.87832       -0.00001
C          0.31384       -1.12323       -0.00002
H          0.67622       -2.14622       -0.00002
C          1.17168       -0.05355       -0.00002
C          0.71533        1.28883       -0.00001
H          1.41762        2.11752       -0.00001
C         -0.63298        1.53490       -0.00000
C         -1.56691        0.45249       -0.00000
N         -2.88835        0.77339        0.00000
C         -3.75553       -0.21835        0.00001
H         -4.80755        0.05458        0.00001
O         -1.09988        2.81036        0.00000
H         -2.07714        2.76865       -0.00001
C          2.65599       -0.26745       -0.00000
F          3.24604        0.29282       -1.07765
F          3.00087       -1.56427       -0.00019
F          3.24596        0.29248        1.07788
