20
id_2154_cb.log	Energy: -370206.9179376
C         -4.28735        0.46275        0.18073
H         -4.19344        1.20685       -0.61678
H         -5.28173        0.01815        0.15327
H         -4.12116        0.93622        1.15374
O         -3.37521       -0.61244       -0.02074
C         -2.04272       -0.31659       -0.02961
C         -1.17668       -1.39711       -0.23955
H         -1.59704       -2.38660       -0.39340
C          0.19513       -1.19433       -0.26540
H          0.84396       -2.04472       -0.45685
C          0.73261        0.08884       -0.07980
C         -0.14414        1.15704        0.11400
H          0.25803        2.15693        0.24856
C         -1.52577        0.96938        0.14627
H         -2.17647        1.82133        0.30682
C          2.20084        0.37219       -0.10445
O          2.63996        1.49596       -0.48153
N          3.00099       -0.60091        0.30237
H          2.61257       -1.47084        0.65544
O          4.35235       -0.49401        0.31470
