14
id_2409_ca.log	Energy: -512550.2273699
C          2.29832        1.07954        0.00001
H          2.20986        1.68766       -0.90222
H          3.23878        0.52234       -0.00002
H          2.20989        1.68760        0.90228
S          1.00138       -0.12856       -0.00001
O          1.05700       -0.88798       -1.26097
O          1.05704       -0.88805        1.26092
C         -0.48166        0.88372        0.00004
H         -0.45740        1.51933        0.89135
H         -0.45740        1.51941       -0.89120
C         -1.73090        0.03672        0.00001
O         -1.75577       -1.17394        0.00001
O         -2.81633        0.80938       -0.00001
H         -3.61598        0.24546       -0.00002
