25
id_2435_cb.log	Energy: -291360.2296087
C         -3.80072       -0.98358        0.10152
H         -3.83685       -1.05726        1.19467
H         -3.79574       -2.00291       -0.30166
H         -4.72161       -0.49438       -0.23254
C         -2.56153       -0.21465       -0.34911
H         -2.60710        0.81167        0.04016
H         -2.55283       -0.13337       -1.44441
C         -1.26676       -0.87910        0.11609
H         -1.24263       -1.91743       -0.24297
H         -1.25238       -0.92278        1.21432
C         -0.00000       -0.16740       -0.37272
H          0.00000       -0.16516       -1.47066
C          1.26676       -0.87910        0.11610
H          1.25237       -0.92278        1.21432
H          1.24263       -1.91743       -0.24297
C          2.56153       -0.21465       -0.34910
H          2.55283       -0.13336       -1.44440
H          2.60710        0.81166        0.04018
C          3.80071       -0.98358        0.10152
H          3.83684       -1.05728        1.19467
H          4.72161       -0.49439       -0.23254
H          3.79574       -2.00292       -0.30167
C          0.00000        1.29622        0.08826
O         -0.00001        1.51768        1.33448
O          0.00002        2.20148       -0.79695
