45
id_229_ca.log	Energy: -544633.3648589
C         -4.57330       -2.55898        0.17278
H         -5.45844       -3.15029        0.38588
C         -4.62840       -1.52206       -0.76031
H         -5.55730       -1.30354       -1.27855
C         -3.49215       -0.76794       -1.02966
H         -3.53695        0.04321       -1.75360
C         -2.27991       -1.03194       -0.37935
C         -2.23494       -2.07045        0.55220
H         -1.31092       -2.30245        1.07303
C         -3.37551       -2.82851        0.82658
H         -3.32102       -3.63299        1.55395
C         -1.08277       -0.15021       -0.70573
H         -1.02435       -0.07508       -1.79914
C          0.25110       -0.72635       -0.20704
H          0.36837       -1.75184       -0.57910
H          0.24633       -0.76330        0.88704
C          1.40778        0.12871       -0.69978
H          1.34119        0.29371       -1.77891
H          1.44864        1.09813       -0.19653
N          2.73922       -0.52041       -0.46415
C          3.03433       -0.74152        0.99113
H          2.28129       -1.41756        1.39650
H          2.96118        0.23729        1.47208
C          4.42188       -1.33790        1.14805
H          4.45417       -2.33760        0.69121
H          4.64987       -1.42772        2.21131
O          5.41108       -0.50712        0.56699
C          5.18014       -0.37106       -0.82442
H          5.97318        0.25869       -1.23070
H          5.22129       -1.35599       -1.31147
C          3.83966        0.28759       -1.08876
H          3.63286        0.35738       -2.15775
H          3.79111        1.27882       -0.63189
C         -1.29246        1.25914       -0.16909
C         -1.25546        2.36224       -1.02342
H         -1.09333        2.20674       -2.08744
C         -1.42285        3.65450       -0.52378
H         -1.39397        4.50254       -1.20137
C         -1.62607        3.85493        0.83878
H         -1.75687        4.85925        1.22966
C         -1.66308        2.75726        1.70035
H         -1.82374        2.90612        2.76394
C         -1.49872        1.46981        1.19903
H         -1.53765        0.61575        1.87238
H          2.72632       -1.44307       -0.92275
