28
id_200_ca.log	Energy: -290117.9856145
C          1.45768        0.02457       -0.31828
C          2.05430       -1.22096       -0.98436
H          3.13967       -1.10781       -1.00070
H          1.69096       -1.27984       -2.01478
H          1.81556       -2.14153       -0.45222
C          1.77620        0.02232        1.12323
N          2.06430        0.02312        2.24322
N         -0.06468        0.00574       -0.44877
C         -0.73423        1.26459        0.05523
H         -0.52846        1.31067        1.12899
H         -0.26615        2.10934       -0.44503
C         -2.22715        1.23517       -0.23445
H         -2.64867        2.16259        0.16305
H         -2.37807        1.24609       -1.32092
C         -2.89763        0.00898        0.37457
H         -2.82583        0.05441        1.46812
H         -3.95861       -0.01344        0.11206
C         -2.19862       -1.24799       -0.13095
H         -2.34162       -1.35102       -1.21373
H         -2.60221       -2.14902        0.33913
C         -0.70871       -1.21528        0.17073
H         -0.21278       -2.09317       -0.23769
H         -0.51654       -1.14829        1.24576
H         -0.23844       -0.04235       -1.46525
C          2.03087        1.28941       -0.96731
H          3.11722        1.18958       -0.99577
H          1.65700        1.36489       -1.99289
H          1.78585        2.19581       -0.41370
