20
id_2376_ca.log	Energy: -432035.6557448
C          2.87260       -0.20752        0.12161
H          3.44648        0.71698        0.04709
H          3.20540       -0.91278       -0.64494
H          3.03623       -0.66942        1.09973
C          1.42472        0.06115       -0.05095
N          0.92830        1.25507       -0.14539
C         -0.50210        1.35944       -0.44348
H         -0.92550        2.22009        0.07638
H         -0.61151        1.49485       -1.52431
C         -1.14743        0.05161        0.03375
S          0.24348       -1.18998       -0.14661
C         -2.32610       -0.34996       -0.83987
H         -3.10088        0.41865       -0.75175
H         -2.75153       -1.29977       -0.50463
H         -2.03618       -0.43607       -1.88997
C         -1.53314        0.12069        1.50716
H         -2.33479        0.85790        1.62347
H         -0.68750        0.42423        2.13157
H         -1.89912       -0.84881        1.85535
H          1.53378        2.07574       -0.12375
