24
id_2430_cb.log	Energy: -301542.6018166
C          3.19513       -1.50649        0.56009
H          3.04252       -2.34685       -0.13334
H          3.32831       -1.90932        1.56677
H          4.11895       -0.99623        0.27205
N          2.09013       -0.55022        0.55347
H          1.25407       -1.03466        0.88183
C          1.81511       -0.07507       -0.80090
H          2.73939        0.35496       -1.20234
H          1.49355       -0.87555       -1.48505
C          0.75328        1.02678       -0.74367
C         -0.59718        0.46095       -0.33266
C         -1.10091        0.63556        0.95656
H         -0.53944        1.22635        1.67397
C         -2.32275        0.06860        1.32068
H         -2.70413        0.21315        2.32716
C         -3.05271       -0.67653        0.39830
H         -4.00497       -1.11469        0.68093
C         -2.55523       -0.85380       -0.89345
H         -3.12074       -1.42872       -1.62066
C         -1.33541       -0.28931       -1.25382
H         -0.95066       -0.42455       -2.26253
O          1.20025        2.04973        0.13114
H          1.65572        1.57419        0.85127
H          0.65841        1.47145       -1.74027
