17
id_2166_cb.log	Energy: -350607.5067466
C          1.67996        1.72920        0.19005
H          2.04608        2.72373        0.42709
C          0.36161        1.55278       -0.22971
H         -0.29892        2.41193       -0.31582
C         -0.12870        0.27903       -0.53892
C          0.72733       -0.82140       -0.42676
H          0.38727       -1.82769       -0.65692
C          2.03061       -0.61323       -0.00718
C          2.53921        0.63625        0.30810
H          3.56991        0.74221        0.63070
F          2.85169       -1.69034        0.09755
C         -1.56422        0.08058       -0.93827
H         -1.65859       -0.75669       -1.63833
H         -1.94482        0.97029       -1.45246
C         -2.52627       -0.20066        0.23286
O         -3.73016       -0.41740       -0.08773
O         -2.08025       -0.19586        1.41108
