18
id_2406_ca.log	Energy: -439457.0770263
C          1.29151        1.53138       -0.00001
H          2.17973        2.15259       -0.00001
C          0.03615        2.09969       -0.00001
H         -0.09099        3.17684       -0.00001
C         -1.11020        1.28731       -0.00000
C         -0.97724       -0.12072        0.00000
C          0.29537       -0.69181        0.00001
H          0.41130       -1.76917        0.00001
C          1.40400        0.13592        0.00000
N          2.72606       -0.46568        0.00000
O          2.81394       -1.68662        0.00002
O          3.70035        0.27538       -0.00002
C         -2.18384       -0.97024       -0.00000
O         -3.32514       -0.52113        0.00001
O         -1.93248       -2.27584       -0.00002
H         -2.77884       -2.76518       -0.00003
O         -2.29696        1.90836        0.00001
H         -3.01597        1.23437        0.00003
