36
id_291_cb.log	Energy: -423481.0573722
C         -0.41476        3.32705        0.01205
H          0.33641        3.61811       -0.73229
H         -1.39224        3.66541       -0.34481
H         -0.18736        3.84475        0.94826
C         -0.40300        1.81909        0.20600
C         -0.77415        1.09738       -1.09236
H         -1.77046        1.40064       -1.42612
H         -0.06738        1.39874       -1.87528
C         -0.70645       -0.42781       -0.92092
C          0.65367       -0.86385       -0.35563
C          1.77365       -0.73932       -1.39634
H          1.85920        0.29913       -1.74337
H          1.51983       -1.34353       -2.27560
C          3.11910       -1.17448       -0.81246
H          3.06671       -2.23727       -0.53832
H          3.90802       -1.07550       -1.56599
C          3.46106       -0.35358        0.43204
H          3.60756        0.69705        0.14567
H          4.40821       -0.69259        0.86550
C          2.34619       -0.46439        1.47580
H          2.28232       -1.50798        1.81060
H          2.57529        0.14596        2.35604
C          0.97894       -0.05887        0.92156
N          0.90527        1.39903        0.73298
H          1.60186        1.66672        0.03305
C         -1.83869       -0.95001       -0.05182
O         -1.73975       -1.83382        0.77790
O         -3.00849       -0.35751       -0.32084
C         -4.13479       -0.83501        0.42724
H         -3.97056       -0.67986        1.49527
H         -4.98553       -0.24902        0.08441
H         -4.29761       -1.89607        0.22885
H         -1.14769        1.55334        0.97197
H         -0.86414       -0.90417       -1.89967
H          0.58463       -1.92143       -0.07055
H          0.21735       -0.30225        1.67413
