16
id_213_ca.log	Energy: -225470.5217152
C          0.74986        1.22026       -0.00417
H          1.30288        2.15445       -0.00375
C         -0.63625        1.22191       -0.00573
H         -1.20375        2.14631       -0.00489
C         -1.27011       -0.00895       -0.00839
N         -0.66418       -1.18008       -0.00704
C          0.66714       -1.17617       -0.00555
H          1.16091       -2.14422       -0.00667
C          1.43854       -0.00119       -0.00557
N          2.81367       -0.06174       -0.06926
H          3.22059       -0.92547        0.27281
H          3.29479        0.75770        0.28429
N         -2.74015       -0.07631        0.01480
H         -3.06553       -0.93264       -0.45205
H         -3.16696        0.72921       -0.46075
H         -3.10340       -0.09363        0.97796
