13
id_2312_ca.log	Energy: -255123.6142498
C          0.07464        1.77821       -0.00000
H          0.10896        2.86335        0.00000
C         -1.15865        1.13301        0.00000
H         -2.08765        1.69419       -0.00000
C         -1.20281       -0.26339       -0.00000
C         -0.02753       -1.01579       -0.00000
H         -0.04684       -2.10176       -0.00000
C          1.17434       -0.32618       -0.00000
C          1.26945        1.05513        0.00000
H          2.24020        1.53859       -0.00000
F          2.31758       -1.05503       -0.00000
O         -2.43767       -0.85519       -0.00000
H         -2.34821       -1.82342        0.00001
