15
id_2386_ca.log	Energy: -757440.6688651
C         -1.67019       -1.36916       -0.00884
H         -2.43492       -2.13937       -0.01405
C         -0.32355       -1.70761       -0.00396
H         -0.02128       -2.74846       -0.00545
C          0.64780       -0.71090        0.00049
C          0.27322        0.63513       -0.00178
C         -1.07296        0.98514       -0.00696
H         -1.37045        2.02903       -0.01035
C         -2.01622       -0.02797       -0.00999
N         -3.43564        0.33919        0.01176
H         -3.60988        1.21163       -0.50526
H         -4.01976       -0.39569       -0.40935
Cl         1.46013        1.89733       -0.00098
Cl         2.31910       -1.17030        0.00525
H         -3.76983        0.48117        0.97577
