29
id_2006_ca.log	Energy: -326634.4464685
C          3.77344        1.63549       -0.61490
H          4.80063        1.86346       -0.33422
H          3.10839        2.43737       -0.28291
H          3.68813        1.55618       -1.70159
C          3.35094        0.34449        0.01893
O          4.03005       -0.32879        0.76852
O          2.10616       -0.00042       -0.33598
C          1.60188       -1.22734        0.22733
H          1.62060       -1.14570        1.31849
H          2.25819       -2.04799       -0.07381
C          0.19414       -1.42358       -0.29195
H         -0.16676       -2.38622        0.08811
H          0.21662       -1.49355       -1.38537
C         -0.75366       -0.30590        0.14389
H         -0.42689        0.64939       -0.28365
H         -0.72266       -0.21329        1.23460
C         -2.16322       -0.62009       -0.32665
H         -2.17302       -0.84628       -1.39571
H         -2.59537       -1.46445        0.21764
N         -3.11401        0.52734       -0.13971
C         -3.23215        0.94524        1.28577
H         -2.27485        1.33416        1.62736
H         -3.52431        0.07056        1.86888
H         -3.99400        1.72151        1.35361
C         -4.45200        0.19232       -0.70407
H         -5.09449        1.06768       -0.61845
H         -4.32918       -0.08960       -1.74929
H         -4.85994       -0.63906       -0.12784
H         -2.73887        1.32438       -0.66832
