15
id_2068_cb.log	Energy: -240516.2630870
C          4.00891       -0.12322        0.00000
H          4.55925        0.23152        0.87957
H          4.55924        0.23151       -0.87957
H          4.01969       -1.21719        0.00001
C          2.61092        0.40761       -0.00000
H          2.49554        1.49278       -0.00001
C          1.50595       -0.35478        0.00000
H          1.59865       -1.44208        0.00001
C          0.15740        0.19718       -0.00000
H          0.06636        1.28412       -0.00001
C         -0.95554       -0.55409        0.00000
H         -0.88302       -1.64055        0.00001
C         -2.34454        0.01381       -0.00000
O         -2.49585        1.27024       -0.00001
O         -3.29344       -0.82763        0.00001
