41
id_2140_ca.log	Energy: -496064.3149400
C         -5.22952       -1.28085        0.85707
H         -6.19250       -0.77412        0.81101
H         -4.90121       -1.38558        1.89044
H         -5.28494       -2.25491        0.37004
N         -4.22796       -0.45727        0.11964
C         -4.64698       -0.26745       -1.30015
H         -5.67903        0.08059       -1.30566
H         -4.56447       -1.23058       -1.80573
H         -4.00333        0.47429       -1.77048
C         -2.86701       -1.06264        0.24050
H         -2.65525       -1.16006        1.30716
H         -2.91751       -2.05491       -0.21337
C         -1.79663       -0.20460       -0.41240
H         -1.87600        0.83555       -0.06492
H         -1.87709       -0.21528       -1.50664
O         -0.56840       -0.78339       -0.01702
C          0.55406       -0.18269       -0.64462
H          0.40200       -0.18099       -1.73421
C          1.77890       -1.01734       -0.32459
C          1.82417       -1.85422        0.79083
H          0.95336       -1.94854        1.43114
C          2.98254       -2.57671        1.07687
H          3.00721       -3.22889        1.94471
C          4.10117       -2.46657        0.25484
H          5.00071       -3.03169        0.47839
C          4.05935       -1.62773       -0.85914
H          4.92563       -1.53879       -1.50756
C          2.90383       -0.90749       -1.14591
H          2.86911       -0.25381       -2.01473
C          0.74670        1.25381       -0.18359
C          1.00315        2.26859       -1.10361
H          1.03850        2.03320       -2.16462
C          1.21019        3.57778       -0.66758
H          1.41014        4.36269       -1.39052
C          1.14917        3.87750        0.69076
H          1.30465        4.89652        1.03136
C          0.88381        2.86464        1.61447
H          0.83296        3.09542        2.67425
C          0.68715        1.55808        1.17952
H          0.48338        0.76567        1.89593
H         -4.19783        0.46962        0.56301
