15
id_2083_ca.log	Energy: -349217.6160413
C          2.00862       -0.82917        0.44501
H          1.21751       -1.40555        0.93881
H          2.49765       -0.21324        1.20939
H          2.74603       -1.54400        0.06595
C          1.45802        0.03923       -0.68465
H          0.92508       -0.59078       -1.40839
H          2.29090        0.49415       -1.23336
C          0.53881        1.16068       -0.19605
H          0.15145        1.72095       -1.05536
H          1.12728        1.86480        0.40884
C         -0.63088        0.70145        0.66988
H         -1.24793        1.55899        0.95230
H         -0.28499        0.23370        1.59534
S         -1.79509       -0.44206       -0.16174
H         -0.94885       -1.47916       -0.29075
