17
id_238_cb.log	Energy: -299018.1369463
C         -1.95080       -1.53248        0.00000
H         -2.72823       -2.29366        0.00000
C         -0.62472       -1.91398        0.00000
H         -0.32794       -2.95905        0.00000
C          0.36521       -0.89819        0.00000
C          1.75459       -1.20283        0.00000
H          2.05441       -2.25032        0.00000
N          2.72141       -0.30881        0.00000
C          2.35439        1.00601        0.00000
H          3.16956        1.72344        0.00000
C          1.04724        1.42655        0.00000
H          0.81732        2.48746        0.00000
C          0.00000        0.47532        0.00000
C         -1.40205        0.87473        0.00000
C         -2.33681       -0.17692        0.00000
H         -3.39351        0.08095        0.00000
O         -1.73546        2.12795        0.00000
