25
id_2039_cb.log	Energy: -338391.7752549
C         -2.35685       -1.75751       -0.00001
H         -2.98800       -1.58731        0.88097
H         -2.06604       -2.80878       -0.00003
H         -2.98801       -1.58728       -0.88098
C         -1.13426       -0.86921       -0.00001
C         -1.27734        0.52849        0.00001
C         -0.13623        1.33835        0.00001
C          1.15297        0.79667        0.00000
C          1.29476       -0.59938        0.00000
C          0.16215       -1.46341       -0.00002
O          0.33356       -2.77527       -0.00004
C          2.65139       -1.25515        0.00002
H          2.77680       -1.90296        0.87709
H          3.46754       -0.53009        0.00012
H          2.77691       -1.90282       -0.87714
C          2.35998        1.70787       -0.00000
H          2.98912        1.53719       -0.88101
H          2.98906        1.53729        0.88107
H          2.06606        2.75828       -0.00007
O         -0.25014        2.73210        0.00001
H         -1.18673        2.98231        0.00004
C         -2.63539        1.19356        0.00002
H         -2.77206        1.83098       -0.88375
H         -2.77204        1.83097        0.88380
H         -3.44710        0.46590        0.00003
