44
id_229_cb.log	Energy: -544341.8588152
C         -4.57885       -2.52556        0.16808
H         -5.47105       -3.10675        0.37983
C         -4.62026       -1.48805       -0.76509
H         -5.54579       -1.25894       -1.28495
C         -3.47469       -0.74716       -1.03238
H         -3.50945        0.06438       -1.75661
C         -2.26556       -1.02416       -0.38109
C         -2.23535       -2.06373        0.55036
H         -1.31376       -2.30596        1.07063
C         -3.38492       -2.80854        0.82352
H         -3.34072       -3.61376        1.55091
C         -1.05455       -0.15909       -0.70451
H         -0.99976       -0.07990       -1.79825
C          0.27552       -0.75054       -0.21516
H          0.37063       -1.77762       -0.58750
H          0.26648       -0.79964        0.87984
C          1.46564        0.07320       -0.69586
H          1.35539        0.27006       -1.76990
H          1.46339        1.05691       -0.19063
N          2.75565       -0.59200       -0.50350
C          3.03495       -0.77811        0.92288
H          2.30068       -1.45997        1.36040
H          2.97029        0.18523        1.46286
C          4.41969       -1.36855        1.12222
H          4.46744       -2.36857        0.66625
H          4.64535       -1.45608        2.18758
O          5.42370       -0.53931        0.55402
C          5.17623       -0.36054       -0.83401
H          5.96174        0.29613       -1.21528
H          5.24315       -1.33060       -1.34836
C          3.80958        0.25694       -1.06390
H          3.63967        0.38015       -2.13842
H          3.79210        1.26103       -0.60116
C         -1.25469        1.25079       -0.16699
C         -1.22153        2.35498       -1.02045
H         -1.06602        2.19969       -2.08553
C         -1.38229        3.64779       -0.52016
H         -1.35513        4.49566       -1.19819
C         -1.57649        3.84938        0.84364
H         -1.70211        4.85409        1.23532
C         -1.61146        2.75131        1.70480
H         -1.76549        2.90031        2.76945
C         -1.45353        1.46346        1.20212
H         -1.49088        0.60972        1.87597
