33
id_2342_cb.log	Energy: -351738.3536477
C         -2.04037       -1.58380        1.04350
H         -1.51993       -0.87958        1.70201
H         -1.57596       -2.56778        1.16499
H         -3.08337       -1.64835        1.36664
C         -1.96918       -1.12847       -0.40793
C         -0.53034       -1.04548       -0.93006
H         -0.55412       -0.89220       -2.01899
H         -0.06953       -2.02150       -0.76345
N          0.25651        0.00653       -0.27162
C          0.11976        1.29489       -0.96932
H          1.01858        1.57037       -1.53646
H         -0.69369        1.19754       -1.69109
C         -0.24824        2.42080        0.01082
H         -0.78316        3.21612       -0.51426
H          0.64163        2.85931        0.47536
O         -1.11651        1.91284        1.02166
H         -0.70125        1.05384        1.25097
C          1.64656       -0.38751        0.08819
C          2.35449        0.79737        0.75253
H          1.77519        1.16150        1.60892
H          2.51855        1.62724        0.05912
H          3.33405        0.47263        1.11635
C          2.45164       -0.83843       -1.13821
H          2.00955       -1.72735       -1.60025
H          3.47822       -1.08644       -0.84868
H          2.49792       -0.04510       -1.89240
C          1.59374       -1.51498        1.12587
H          1.01612       -1.19636        2.00056
H          2.60988       -1.75744        1.45317
H          1.14879       -2.43417        0.73454
O         -2.67914        0.09531       -0.59438
H         -2.27439        0.76272       -0.00366
H         -2.49186       -1.86226       -1.03263
