22
id_25_ca.log	Energy: -391616.4227547
C          2.58303        1.24844       -0.49594
H          2.75038        1.14245       -1.57169
H          3.10784        0.44589        0.02628
H          2.96473        2.21471       -0.16526
C          1.13419        1.17478       -0.20494
N          0.39925        2.16947        0.31889
C         -0.90091        1.79268        0.45020
H         -1.67345        2.43247        0.84724
C         -0.94735        0.51565       -0.01194
N          0.31900        0.14113       -0.43024
C          0.78884       -1.17674       -0.90470
H          0.05758       -1.57284       -1.60464
H          1.72585       -0.99504       -1.43243
C          1.00807       -2.11238        0.26678
H          1.33823       -3.07745       -0.13600
H          0.06780       -2.26361        0.80893
O          1.99164       -1.52468        1.10027
H          2.02555       -2.03305        1.92496
N         -2.11542       -0.30323       -0.07033
O         -2.00446       -1.45092       -0.46584
O         -3.15717        0.21564        0.29146
H          0.78032        3.07992        0.57055
