22
id_2051_cb.log	Energy: -324071.4713823
C          1.91447        2.43391       -0.06413
H          1.26143        2.79885        0.73523
H          1.48850        2.69883       -1.03729
H          2.90404        2.87836        0.03730
O          2.10160        1.02889        0.03945
C          0.98406        0.24592       -0.04809
C         -0.31137        0.69986       -0.24732
H         -0.51180        1.76301       -0.34488
C         -1.37646       -0.21213       -0.32821
C         -1.11432       -1.57264       -0.20504
H         -1.93222       -2.28538       -0.26804
C          0.18940       -2.03591       -0.00336
H          0.40488       -3.09566        0.09139
C          1.23572       -1.13336        0.07702
O          2.51621       -1.58004        0.27307
H          3.10040       -0.80202        0.30715
C         -2.78919        0.30315       -0.48030
H         -3.42943       -0.50288       -0.84987
H         -2.81259        1.10274       -1.22694
N         -3.38776        0.83005        0.75601
H         -2.77750        1.57328        1.09781
H         -3.31775        0.09686        1.46238
