27
id_2230_cb.log	Energy: -302922.8321366
C          3.60970       -0.09900        0.33837
H          4.64880       -0.21747        0.62724
C          2.81288       -1.21208        0.08082
H          3.23074       -2.21096        0.16929
C          1.47666       -1.07153       -0.28709
H          0.87801       -1.95605       -0.47864
C          0.90545        0.20631       -0.41055
C          1.71366        1.32590       -0.14355
H          1.27986        2.31933       -0.22963
C          3.04451        1.17208        0.22213
H          3.64425        2.05529        0.42303
N         -0.40523        0.39439       -0.84296
H         -0.74930        1.32390       -0.61572
C         -1.41616       -0.64324       -0.61971
H         -1.14372       -1.52375       -1.20842
C         -1.62842       -0.97232        0.86571
H         -2.23336       -1.88349        0.93976
H         -0.69140       -1.14597        1.40306
C         -2.41293        0.24031        1.39390
H         -3.02769       -0.01474        2.26065
H         -1.71507        1.02119        1.71382
C         -3.25866        0.73790        0.19140
H         -3.09604        1.80631        0.01996
H         -4.32941        0.60418        0.36473
C         -2.78839       -0.09660       -1.02334
H         -2.74630        0.47823       -1.95286
H         -3.46262       -0.94310       -1.18406
