34
id_267_cb.log	Energy: -422702.3716816
C         -2.18518        2.66521       -0.61239
H         -2.99395        2.92826       -1.30366
H         -1.50132        1.99091       -1.14074
H         -1.63036        3.57889       -0.37920
C         -2.73868        2.02137        0.65719
H         -3.30164        2.76719        1.22942
H         -1.90640        1.71233        1.30247
C         -3.65757        0.82525        0.38424
H         -4.57188        1.17950       -0.10771
H         -3.95947        0.37440        1.33682
C         -3.03681       -0.24795       -0.50374
H         -2.88618        0.15153       -1.52075
H         -3.73166       -1.08979       -0.60075
N         -1.78324       -0.75834        0.05445
H         -1.14668        0.03421        0.16114
C         -1.13790       -1.70512       -0.85201
H         -1.82172       -2.54589       -1.01395
H         -0.90285       -1.26936       -1.83600
C          0.14161       -2.22985       -0.19522
C          1.18088       -1.12642       -0.07336
C          1.42267       -0.47402        1.13688
H          0.89359       -0.79211        2.03037
C          2.34215        0.56819        1.21995
H          2.53424        1.07336        2.16140
C          3.03568        0.96930        0.07927
C          2.80575        0.33010       -1.14019
H          3.35337        0.64520       -2.02448
C          1.88337       -0.70823       -1.20655
H          1.71124       -1.20601       -2.15850
O          3.93697        1.99432        0.20954
H          4.35577        2.16211       -0.65096
O         -0.18745       -2.80079        1.06183
H         -0.89323       -2.22808        1.41623
H          0.54986       -3.03354       -0.81769
