19
id_2023_cb.log	Energy: -242046.0201114
C          3.15098       -0.16641        0.18652
H          3.79836       -1.01056       -0.07280
H          3.17881       -0.04372        1.27551
H          3.58005        0.73698       -0.26221
C          1.72030       -0.38720       -0.29755
H          1.32664       -1.31563        0.13839
H          1.71395       -0.52629       -1.38705
C          0.80005        0.77643        0.06661
H          1.21785        1.71029       -0.33478
H          0.76662        0.88876        1.15970
C         -0.63110        0.62111       -0.46176
C         -1.49966        1.81155       -0.05105
H         -2.52669        1.70438       -0.41737
H         -1.08880        2.74138       -0.45947
H         -1.53419        1.90584        1.03975
C         -1.24326       -0.68971        0.04663
O         -1.40671       -0.81557        1.29592
O         -1.54601       -1.57797       -0.80343
H         -0.59477        0.56223       -1.55605
