45
id_2147_cb.log	Energy: -1015304.2089186
C          3.87414        1.54713       -1.65930
H          4.44214        2.28865       -1.08745
H          3.37347        2.06778       -2.48197
H          4.57131        0.81933       -2.08421
C          2.83851        0.88790       -0.75238
C          3.46306        0.09189        0.44184
N          2.50534       -0.96011        0.75985
C          1.79464       -1.57801       -0.36974
S          1.91180       -0.38699       -1.74891
C          0.51462       -1.63150        0.50969
C          1.35798       -0.81634        1.50559
O          1.12809       -0.19918        2.52644
N         -0.64717       -0.95247        0.00900
H         -0.49294       -0.19795       -0.65761
C         -1.80989       -0.95687        0.70043
O         -2.01040       -1.71080        1.65772
C         -2.85272       -0.00269        0.20309
C         -2.65099        1.38101        0.30265
C         -3.63629        2.27183       -0.13308
H         -3.49626        3.34334       -0.06023
C         -4.81584        1.75457       -0.66301
H         -5.58442        2.44226       -1.00337
C         -5.04290        0.38414       -0.77067
H         -5.97110        0.01832       -1.19216
C         -4.05094       -0.49624       -0.33025
O         -4.15039       -1.85146       -0.39967
C         -5.33622       -2.39953       -0.97074
H         -5.45417       -2.07043       -2.00774
H         -6.21551       -2.11643       -0.38413
H         -5.20490       -3.48053       -0.93905
O         -1.46844        1.76442        0.85532
C         -1.20974        3.16150        0.97236
H         -0.23336        3.24321        1.44956
H         -1.96642        3.64307        1.59931
H         -1.18273        3.63400       -0.01465
C          4.85793       -0.47398        0.11845
O          4.92100       -1.60693       -0.42370
O          5.83264        0.27157        0.40324
C          1.86264        1.94041       -0.22149
H          2.41751        2.70969        0.32898
H          1.11959        1.50703        0.45444
H          1.32833        2.41955       -1.04823
H          3.54073        0.75673        1.30618
H          2.18321       -2.54461       -0.68547
H          0.26148       -2.63534        0.85315
