18
id_278_ca.log	Energy: -262593.4876597
C          2.85093       -0.91765        0.00222
H          2.59002       -1.48541       -0.89491
H          2.58732       -1.48357        0.89975
H          3.91544       -0.69074        0.00360
O          2.18819        0.34928        0.00004
C          0.85417        0.35958       -0.00130
C          0.25868        1.65233       -0.00113
H          0.87914        2.53866       -0.00126
C         -1.09377        1.73511        0.00130
H         -1.64137        2.66806        0.00331
N         -1.86122        0.60765        0.00208
C         -1.33178       -0.63982       -0.00086
C          0.06811       -0.77747       -0.00143
H          0.48211       -1.77699       -0.00120
N         -2.15933       -1.68750       -0.02193
H         -3.16053       -1.56868        0.07387
H         -1.77783       -2.62105        0.05817
H         -2.87396        0.71199        0.00445
