21
id_25_cb.log	Energy: -391337.3200099
C         -2.56775       -1.31046       -0.47853
H         -2.74584       -1.19153       -1.55186
H         -3.11011       -0.52046        0.04713
H         -2.95277       -2.28019       -0.16280
C         -1.11374       -1.25770       -0.17111
N         -0.42157       -2.26286        0.37262
C          0.85033       -1.82070        0.48202
H          1.65328       -2.41987        0.88638
C          0.92940       -0.53500        0.00101
N         -0.33429       -0.18299       -0.43331
C         -0.81992        1.11735       -0.90827
H         -0.12612        1.50754       -1.65010
H         -1.78185        0.93644       -1.39038
C         -0.98670        2.09392        0.23899
H         -1.31477        3.05456       -0.17733
H         -0.02548        2.24566        0.74370
O         -1.95054        1.55610        1.12977
H         -1.95769        2.10884        1.92599
N          2.07832        0.27337       -0.07933
O          1.98934        1.40455       -0.54866
O          3.13050       -0.20542        0.33448
