55
id_29_cb.log	Energy: -1440886.7412373
C          1.67818       -1.20619       -2.93846
H          0.96010       -1.28771       -3.75833
H          2.53343       -1.85489       -3.15960
H          2.05527       -0.17809       -2.90681
C          1.03342       -1.59165       -1.63708
C         -0.28540       -2.02368       -1.57207
H         -0.86878       -2.06420       -2.49166
C         -0.89035       -2.37505       -0.35704
C         -0.13053       -2.33136        0.80877
H         -0.57992       -2.60887        1.75937
C          1.20103       -1.91258        0.77743
H          1.76835       -1.88817        1.70174
C          1.76700       -1.51620       -0.43481
O          3.03175       -1.02076       -0.56062
C          3.85856       -0.98123        0.59128
H          4.73410       -0.39328        0.30128
H          3.36223       -0.46281        1.41908
C          4.34004       -2.36232        1.06289
O          4.13202       -3.35760        0.32597
O          4.93951       -2.36091        2.17305
C         -2.35466       -2.70146       -0.30093
H         -2.64309       -3.07460        0.68386
H         -2.66481       -3.41406       -1.06884
N         -3.19030       -1.46431       -0.54139
H         -3.03188       -1.15341       -1.51372
C         -4.67555       -1.70710       -0.39855
H         -5.05780       -2.09493       -1.34318
H         -4.81631       -2.45045        0.39101
C         -5.18993       -0.35337       -0.00523
C         -6.49829        0.11598       -0.00300
H         -7.31607       -0.51463       -0.33925
C         -6.73285        1.42044        0.43678
H         -7.74648        1.80964        0.44148
C         -5.67861        2.23412        0.86294
H         -5.88087        3.24787        1.19467
C         -4.36585        1.75913        0.85867
H         -3.54237        2.39006        1.18280
C         -4.14349        0.45916        0.42172
C         -2.83331       -0.28648        0.33372
C         -1.73483        0.51697       -0.37536
O         -1.86818        0.78824       -1.56471
N         -0.69779        0.87968        0.41018
H         -0.72703        0.52783        1.36326
C          0.51183        1.48467        0.02607
C          0.81299        1.84456       -1.29275
H          0.08410        1.68327       -2.07476
C          2.05252        2.38700       -1.61668
H          2.27204        2.64917       -2.64649
C          3.00203        2.57746       -0.62123
C          2.73167        2.24612        0.70036
H          3.47169        2.39273        1.48038
C          1.49087        1.70569        1.00875
Cl         1.17970        1.27696        2.67205
Cl         4.56649        3.23483       -1.02564
H         -2.51431       -0.67620        1.30655
