24
id_2347_ca.log	Energy: -1868095.7230734
C          2.99059       -0.37407        1.99757
H          2.00273        0.00371        2.27743
H          3.68007        0.47531        1.95233
H          3.33218       -1.04763        2.78722
C          2.94407       -1.10735        0.66186
H          2.21325       -1.92467        0.69693
H          3.92183       -1.55000        0.44089
C          2.57977       -0.16174       -0.47963
C          1.23180        0.50206       -0.31954
C          1.14749        1.89064       -0.22873
H          2.05123        2.48832       -0.30243
C         -0.08746        2.50777       -0.04061
H         -0.14985        3.58845        0.03232
C         -1.24875        1.74724        0.05256
H         -2.21343        2.22121        0.19583
C         -1.14904        0.36255       -0.03972
C          0.07236       -0.27203       -0.21735
H          0.11998       -1.35624       -0.27254
Br        -2.72362       -0.68882        0.08912
N          2.61016       -0.93849       -1.77150
H          2.39667       -0.33747       -2.57630
H          1.92812       -1.70750       -1.76131
H          3.34896        0.60584       -0.58800
H          3.53899       -1.35180       -1.91942
