27
id_2093_cb.log	Energy: -326201.1561362
C         -1.33838       -1.75020        0.43222
H         -0.34874       -1.97563        0.84003
H         -1.44869       -2.28886       -0.51683
H         -2.08403       -2.13574        1.13328
C         -1.52136       -0.25324        0.21126
C         -0.52836        0.30375       -0.82732
C          0.90603        0.17277       -0.37437
C          1.71427       -0.85598       -0.86116
H          1.31326       -1.54336       -1.60237
C          3.02348       -1.00465       -0.40600
H          3.64214       -1.80855       -0.79332
C          3.53847       -0.11792        0.53729
H          4.55955       -0.22834        0.88934
C          2.73781        0.91538        1.02439
H          3.13499        1.61114        1.75746
C          1.42850        1.05831        0.57241
H          0.80578        1.86572        0.94739
O         -0.83000        1.67151       -1.05602
H         -1.80459        1.70157       -0.96659
N         -2.86914        0.12420       -0.24167
H         -3.12881       -0.52461       -0.98671
C         -3.87359        0.03086        0.81720
H         -3.95032       -0.96519        1.27390
H         -4.85312        0.29282        0.40993
H         -3.63132        0.74853        1.60624
H         -1.34287        0.28801        1.15049
H         -0.66042       -0.27354       -1.75788
