16
id_2369_ca.log	Energy: -285132.0326465
C         -0.75104        2.11399        0.00002
H         -0.20611        2.41451       -0.89343
H         -0.20610        2.41449        0.89346
H         -1.74783        2.55025        0.00003
N         -0.91594        0.65397        0.00001
C         -2.12097        0.00141       -0.00001
H         -3.05341        0.54395       -0.00001
C         -1.86142       -1.34003       -0.00001
H         -2.52176       -2.19211       -0.00001
N         -0.50446       -1.46895        0.00000
H          0.01798       -2.34364       -0.00000
C          0.06175       -0.25854       -0.00000
C          1.51664        0.01327       -0.00000
O          1.97702        1.12941       -0.00003
O          2.20186       -1.12220        0.00002
H          3.15925       -0.92082        0.00002
