21
id_2264_ca.log	Energy: -1890491.7630424
C          2.29462        2.35566       -0.00001
H          3.09372        3.08942       -0.00001
C          0.94823        2.78297        0.00000
H          0.72078        3.84369        0.00001
C         -0.07312        1.86708        0.00000
H         -1.10336        2.20364        0.00001
C          0.20014        0.47535       -0.00000
C          1.56188        0.04717       -0.00001
C          2.59713        1.01758       -0.00001
H          3.63703        0.70650       -0.00002
C          1.81790       -1.34912       -0.00000
C          0.82703       -2.28435       -0.00001
H          1.06569       -3.34316       -0.00002
C         -0.52162       -1.86446       -0.00002
H         -1.31102       -2.60674       -0.00003
C         -0.81370       -0.52835       -0.00001
Br        -2.63848       -0.01829        0.00000
N          3.21329       -1.80121        0.00002
H          3.72574       -1.46683       -0.82912
H          3.26869       -2.82843        0.00006
H          3.72572       -1.46677        0.82915
