25
id_2244_cb.log	Energy: -432038.4453720
C         -4.44640       -0.74850        0.21186
H         -5.43886       -0.29609        0.12819
H         -4.35846       -1.21072        1.19963
H         -4.35507       -1.52658       -0.55192
C         -3.38901        0.31523        0.02186
H         -3.47115        1.09587        0.78729
H         -3.47203        0.78204       -0.96660
O         -2.11455       -0.32454        0.13657
C         -0.99001        0.44222        0.01793
C         -1.03129        1.81573       -0.23643
H         -1.97612        2.33343       -0.35321
C          0.16254        2.52978       -0.34070
H          0.12643        3.59687       -0.54039
C          1.38581        1.88805       -0.19228
H          2.31498        2.44396       -0.27152
C          1.42483        0.50963        0.04651
C          0.23979       -0.23032        0.16539
C          0.26147       -1.71690        0.44716
H         -0.70636       -2.04842        0.82131
H          1.01507       -1.93557        1.21289
O          0.53358       -2.48254       -0.72742
H          1.45082       -2.22517       -0.96217
C          2.78941       -0.15453        0.13891
O          2.94446       -1.26534       -0.45056
O          3.69001        0.45843        0.76831
