34
id_2229_ca.log	Energy: -352530.8555977
C          1.65135        2.30483       -0.53638
H          2.42571        3.01806       -0.24805
H          1.47124        2.42478       -1.61089
H          0.73064        2.57602       -0.00899
C          2.09210        0.90462       -0.19909
C          3.30555        0.67104        0.45534
H          3.92242        1.52457        0.72058
C          3.73139       -0.61711        0.76496
H          4.67858       -0.76230        1.27429
C          2.95024       -1.71662        0.41671
H          3.27949       -2.72415        0.64628
C          1.73867       -1.51717       -0.23573
H          1.11567       -2.35867       -0.52593
C          1.33224       -0.22066       -0.52366
N          0.03428       -0.05623       -1.19761
H         -0.07048        0.90856       -1.54093
C         -1.18330       -0.39163       -0.35366
H         -1.02001       -1.41833       -0.01053
C         -1.28255        0.55641        0.83263
H         -0.38331        0.48893        1.45405
H         -1.35703        1.58533        0.45464
C         -2.53349        0.22093        1.65085
H         -2.61210        0.91671        2.49153
H         -2.42652       -0.78651        2.07357
C         -3.79193        0.27764        0.78323
H         -3.94036        1.30688        0.43025
H         -4.67197        0.00914        1.37647
C         -3.66596       -0.65415       -0.42319
H         -4.55040       -0.58119       -1.06307
H         -3.60304       -1.69343       -0.07540
C         -2.41628       -0.32622       -1.24523
H         -2.49980        0.68823       -1.65819
H         -2.30815       -1.02336       -2.08345
H          0.01143       -0.65712       -2.03370
