15
id_2367_cb.log	Energy: -318748.8318237
C         -0.00802        1.24812       -0.00000
H         -0.56032        2.18047       -0.00001
C          1.35981        1.22713       -0.00000
H          1.94153        2.14197       -0.00001
C          2.02484       -0.02958        0.00000
N          1.36107       -1.20861        0.00000
C          0.03631       -1.16975        0.00000
H         -0.48421       -2.12197        0.00000
C         -0.68528        0.01902        0.00000
N         -2.11606       -0.01845        0.00000
O         -2.72869        1.04475        0.00001
O         -2.67993       -1.10898       -0.00001
N          3.36323       -0.08984        0.00000
H          3.82491       -0.98936       -0.00000
H          3.92331        0.75134       -0.00000
