30
id_273_cb.log	Energy: -374629.2994652
C         -2.52696       -1.53327        0.01717
H         -3.00274       -2.48868        0.21655
C         -1.75069       -1.36145       -1.12771
H         -1.61746       -2.18438       -1.82412
C         -1.13495       -0.13572       -1.37742
H         -0.51664       -0.01016       -2.26305
C         -1.27520        0.92913       -0.48559
C         -2.07513        0.75306        0.64829
H         -2.20392        1.57864        1.34621
C         -2.69358       -0.46827        0.90279
H         -3.30565       -0.59046        1.79159
C         -0.56041        2.24985       -0.70329
H         -1.31340        3.04363       -0.76925
H         -0.03324        2.23030       -1.66301
N          0.40644        2.64416        0.33246
H          0.00247        2.42809        1.24412
C          1.70399        1.96782        0.22976
H          2.18054        2.30014       -0.69876
H          2.32079        2.33965        1.05532
C          1.69339        0.45152        0.25558
C          2.20780       -0.28582       -0.81019
H          2.64983        0.23735       -1.65529
C          2.14020       -1.68038       -0.81333
H          2.53889       -2.23974       -1.65462
C          1.54903       -2.35057        0.25380
H          1.48234       -3.43436        0.24951
C          1.04236       -1.62139        1.33328
H          0.58282       -2.13869        2.17058
C          1.12540       -0.23330        1.33596
H          0.71874        0.33234        2.17241
