30
id_2172_cb.log	Energy: -350859.8968858
C          3.36425       -1.18452       -0.59742
H          2.99392       -1.10033       -1.61827
H          2.97962       -2.08794       -0.12162
H          4.45515       -1.19100       -0.59885
N          2.90885       -0.00296        0.19440
C          3.35110        1.25258       -0.48243
H          2.96577        2.10350        0.08132
H          2.97286        1.26504       -1.50363
H          4.44189        1.26562       -0.49199
C          3.53612       -0.06333        1.54989
H          4.61987       -0.04115        1.43040
H          3.22561       -0.99002        2.03415
H          3.19927        0.79936        2.12611
C          1.40688       -0.01936        0.38168
H          1.18896       -0.93044        0.94637
H          1.17809        0.84819        1.00752
C          0.58406        0.01811       -0.90281
H          0.81755        0.92037       -1.47707
H          0.81654       -0.85120       -1.52633
C         -0.88417        0.01016       -0.54094
C         -1.57975       -1.19023       -0.34820
H         -1.05842       -2.13518       -0.50111
C         -2.91953       -1.20660        0.02807
H         -3.43576       -2.15519        0.16356
C         -3.65270       -0.00556        0.24142
C         -2.92924        1.20360        0.04234
H         -3.45302        2.14642        0.18868
C         -1.58919        1.20238       -0.33361
H         -1.07528        2.15309       -0.47510
O         -4.91520       -0.01273        0.59339
