20
id_2389_ca.log	Energy: -333611.5267081
C          3.65826       -0.05136        0.00732
H          4.00422        0.50263       -0.87073
H          4.12240       -1.03928        0.00475
H          3.99763        0.49405        0.89343
C          2.16169       -0.15900        0.00213
C          1.51845       -1.39673        0.00885
H          2.10711       -2.30801        0.01709
C          0.13257       -1.48151        0.00626
H         -0.36993       -2.44079        0.01301
C         -0.62669       -0.32038       -0.00153
C          0.00236        0.93126       -0.00895
C          1.38062        1.00553       -0.00851
H          1.86351        1.97982       -0.01615
N         -0.75232        2.18422       -0.02257
H         -1.36272        2.27012        0.80175
H         -0.11348        2.99001       -0.03758
N         -2.07712       -0.45268        0.00443
O         -2.55687       -1.56887       -0.04745
O         -2.74779        0.57071        0.06403
H         -1.36901        2.24906       -0.84455
