13
id_2014_cb.log	Energy: -974587.4051031
C          1.52646       -0.00000        1.14714
H          1.43941       -0.88349        1.78645
H          1.43941        0.88349        1.78645
C          0.28464       -0.00000        0.23256
C         -0.97210        0.00000        1.08866
H         -0.97064        0.89202        1.71677
H         -0.97064       -0.89202        1.71677
Cl        -2.49879        0.00000        0.15857
Cl         0.32277       -1.46009       -0.81875
Cl         0.32277        1.46009       -0.81875
N          2.81887       -0.00000        0.50343
H          2.90086        0.81723       -0.09939
H          2.90086       -0.81723       -0.09940
