18
id_2005_ca.log	Energy: -288622.3063659
C         -3.07829        0.55044        0.00005
H         -4.02833        0.01481        0.00011
H         -3.01845        1.19507       -0.88299
H         -3.01836        1.19510        0.88306
C         -1.94769       -0.43977       -0.00000
O         -2.16916       -1.64628       -0.00006
C         -0.53988        0.06763       -0.00000
C         -0.25981        1.43748       -0.00002
H         -1.06171        2.16817       -0.00003
C          1.06810        1.86606       -0.00002
H          1.29356        2.92808       -0.00004
C          2.11047        0.94513       -0.00001
H          3.14701        1.26929       -0.00001
C          1.82261       -0.42290        0.00001
C          0.50412       -0.86483        0.00001
H          0.28622       -1.92970        0.00002
O          2.88769       -1.28729        0.00002
H          2.57405       -2.20770        0.00002
