21
id_2034_ca.log	Energy: -229997.6552138
C          2.30721        0.25720        1.22940
H          1.89215       -0.08690        2.17905
H          2.17789        1.34179        1.16416
H          3.37615        0.02597        1.21033
C          1.58869       -0.44731        0.09068
C          0.09851       -0.20013        0.04540
C         -0.41261        1.10005       -0.02448
H          0.26326        1.95228       -0.05257
C         -1.78780        1.31025       -0.06191
H         -2.17675        2.32191       -0.12004
C         -2.66303        0.22496       -0.02017
H         -3.73546        0.39121       -0.04536
C         -2.15874       -1.07103        0.05358
H         -2.83519       -1.91931        0.08585
C         -0.78145       -1.28223        0.08178
H         -0.38520       -2.29272        0.13486
N          2.20442        0.00961       -1.21049
H          2.08934        1.02315       -1.33583
H          1.76863       -0.45867       -2.01373
H          1.77867       -1.52097        0.12966
H          3.21093       -0.19564       -1.22871
