24
id_2218_ca.log	Energy: -230878.3770734
C          0.47856        0.60454       -0.14875
H          0.58432        1.56842        0.36615
H          0.46935        0.82118       -1.22509
C         -0.84358       -0.04533        0.24945
H         -0.84180       -0.24504        1.32983
H         -0.93455       -1.01725       -0.25019
C         -2.04951        0.82373       -0.09983
H         -2.07031        1.01249       -1.18107
H         -1.95921        1.79903        0.39401
C         -3.37008        0.20193        0.31455
H         -4.19742        0.88876        0.09255
H         -3.37046        0.01521        1.39768
O         -3.53657       -1.02086       -0.39855
H         -4.35659       -1.43164       -0.08622
C          1.68057       -0.27933        0.17638
H          1.58807       -1.23855       -0.34822
H          1.70730       -0.49422        1.25205
C          2.97619        0.39336       -0.23371
H          3.14398        1.32260        0.31225
H          3.00772        0.59695       -1.30487
N          4.14322       -0.49579        0.06638
H          4.06862       -1.38374       -0.44337
H          4.18801       -0.71647        1.06800
H          5.03014       -0.05365       -0.19831
