33
id_2341_cb.log	Energy: -791528.9866518
C          0.25716        3.14744       -0.64143
H          0.47905        2.31913       -1.32175
H          0.88474        3.03055        0.24981
H          0.54470        4.07788       -1.13910
C         -1.21963        3.16579       -0.25946
H         -1.84742        3.25457       -1.15294
H         -1.43736        4.03182        0.37521
C         -1.63187        1.93080        0.51363
H         -2.68846        1.96544        0.79883
H         -1.01943        1.81193        1.41334
O         -1.42184        0.78038       -0.34524
P         -1.53870       -0.69342        0.30691
O         -0.89099       -0.80037        1.65364
C         -3.28463       -1.10275        0.25156
H         -3.65368       -1.03482       -0.77529
H         -3.82518       -0.38538        0.87680
H         -3.44015       -2.11235        0.63811
S         -0.63347       -1.90638       -1.13590
C          1.06040       -1.89126       -0.42910
H          0.98112       -2.20802        0.61168
H          1.60715       -2.65846       -0.98230
C          1.73464       -0.53201       -0.57663
H          1.07605        0.26575       -0.19001
H          1.88444       -0.33409       -1.64299
N          3.03120       -0.48238        0.09825
C          2.82510       -0.37489        1.54174
H          3.79212       -0.28648        2.04364
H          2.32325       -1.26189        1.93474
H          2.21625        0.50947        1.80244
C          3.73391        0.71692       -0.35216
H          3.92225        0.65996       -1.42748
H          4.69401        0.79835        0.16420
H          3.15638        1.63630       -0.15004
