42
id_2124_cb.log	Energy: -860597.7925415
C         -6.54420        2.58442       -0.19153
H         -7.49950        2.04756       -0.21377
H         -6.47832        3.17384       -1.11092
H         -6.56112        3.26664        0.66238
C         -5.39814        1.61412       -0.08883
C         -4.98553        0.88279       -1.21118
H         -5.48818        1.03568       -2.16313
C         -3.94447       -0.03598       -1.12637
H         -3.63314       -0.59952       -2.00114
C         -3.30676       -0.22417        0.09878
C         -3.69280        0.48884        1.22921
H         -3.18754        0.33133        2.17734
C         -4.73810        1.40540        1.12664
H         -5.04514        1.96602        2.00580
S         -1.95863       -1.38189        0.21101
O         -2.24852       -2.47619       -0.75117
O         -1.89029       -1.82833        1.62628
N         -0.71891       -0.45832       -0.22574
C          0.49919       -1.07058       -0.25508
O          0.75618       -2.25273        0.04472
N          1.48325       -0.21500       -0.72017
H          1.25590        0.77769       -0.62424
N          2.82668       -0.53043       -0.47380
C          3.70426        0.18674       -1.40688
H          3.62634       -0.23577       -2.41174
H          3.41051        1.25164       -1.45368
C          5.09352        0.04864       -0.77726
C          5.95379        1.31924       -0.89283
H          7.01704        1.05242       -0.86787
H          5.76910        1.86418       -1.82544
C          5.60310        2.12638        0.36341
H          6.33664        2.90583        0.59189
H          4.62741        2.61393        0.23683
C          5.51395        1.04680        1.44918
H          4.98589        1.37841        2.35025
H          6.52573        0.74692        1.74721
C          4.80434       -0.12830        0.75418
C          3.27793       -0.06753        0.84964
H          2.94111        0.97270        1.01030
H          2.85278       -0.69517        1.63778
H          5.60260       -0.82619       -1.19042
H          5.16340       -1.09424        1.11919
