40
id_2140_cb.log	Energy: -495773.1214030
C         -5.22669       -1.26987        0.81723
H         -6.22336       -0.82185        0.78343
H         -4.94550       -1.40939        1.86465
H         -5.27969       -2.26363        0.33926
N         -4.26638       -0.39181        0.15633
C         -4.66386       -0.23489       -1.24053
H         -5.69276        0.13142       -1.28616
H         -4.61263       -1.18814       -1.79594
H         -4.02754        0.49484       -1.74681
C         -2.94701       -1.01349        0.23859
H         -2.70658       -1.17000        1.29577
H         -2.94141       -2.00551       -0.25002
C         -1.84428       -0.16113       -0.36611
H         -1.89817        0.86423        0.02373
H         -1.91446       -0.11637       -1.46141
O         -0.61420       -0.77188       -0.00364
C          0.50786       -0.18452       -0.63632
H          0.35081       -0.17873       -1.72581
C          1.72892       -1.02951       -0.32563
C          1.77319       -1.86853        0.78831
H          0.90399       -1.95674        1.43160
C          2.92743       -2.59967        1.06925
H          2.95090       -3.25270        1.93655
C          4.04363       -2.49686        0.24298
H          4.94011       -3.06841        0.46252
C          4.00308       -1.65670       -0.87013
H          4.86736       -1.57340       -1.52202
C          2.85165       -0.92764       -1.15122
H          2.81864       -0.27255       -2.01912
C          0.72580        1.25078       -0.17966
C          0.99655        2.25902       -1.10271
H          1.02454        2.02042       -2.16329
C          1.22606        3.56609       -0.67137
H          1.43644        4.34550       -1.39738
C          1.17368        3.87094        0.68614
H          1.34601        4.88842        1.02326
C          0.89434        2.86491        1.61329
H          0.84924        3.09964        2.67250
C          0.67527        1.56052        1.18254
H          0.45851        0.77388        1.90156
