21
id_2038_cb.log	Energy: -313147.9412107
C         -1.88624       -1.41051       -0.30921
H         -1.98747       -1.37796       -1.40298
H         -2.41592       -2.30562        0.03635
C         -2.51796       -0.15409        0.29354
H         -2.50304       -0.23215        1.38973
H         -3.56802       -0.06896       -0.00673
C         -1.74861        1.09813       -0.13419
H         -1.81634        1.22452       -1.22393
H         -2.17645        1.99593        0.32957
C         -0.27729        0.98736        0.24825
C          0.36471       -0.24951       -0.37188
C         -0.40481       -1.50842        0.05974
H          0.05131       -2.39089       -0.40422
H         -0.30732       -1.62736        1.14729
C          1.84229       -0.35174        0.02262
O          2.11464       -0.40608        1.25677
O          2.70348       -0.38898       -0.90358
O          0.46854        2.12396       -0.20270
H          0.08199        2.91902        0.19894
H         -0.19068        0.91504        1.34282
H          0.30605       -0.15010       -1.46393
