26
id_252_ca.log	Energy: -325717.7913810
C          4.27490       -0.91519       -0.23416
H          3.95403       -1.50574       -1.09887
H          4.12582       -1.49653        0.68182
H          5.32988       -0.66180       -0.33724
O          3.57892        0.32178       -0.17349
C          2.22015        0.26614       -0.04184
C          1.55751        1.49607        0.01297
H          2.14108        2.40924       -0.04810
C          0.17725        1.53501        0.14284
H         -0.32854        2.49592        0.18410
C         -0.57627        0.35759        0.22318
C          0.10081       -0.86162        0.17195
H         -0.44933       -1.79763        0.23611
C          1.48763       -0.91935        0.03851
H          1.97871       -1.88445        0.00076
C         -2.05796        0.44110        0.35916
C         -2.85163       -0.58016        1.14657
H         -3.70547       -0.21280        1.70738
H         -2.31875       -1.41312        1.59343
C         -2.93638       -0.55356       -0.33534
N         -4.18502       -0.05920       -0.94518
H         -4.01854        0.31158       -1.88853
H         -4.59841        0.69623       -0.38343
H         -2.45063        1.45430        0.39919
H         -2.48795       -1.34292       -0.92676
H         -4.88424       -0.80835       -1.01867
