16
id_2068_ca.log	Energy: -240800.8112750
C         -4.06494       -0.10915        0.00000
H         -4.60563        0.26085       -0.87921
H         -4.60560        0.26081        0.87925
H         -4.09780       -1.20213       -0.00002
C         -2.66112        0.39712       -0.00000
H         -2.52694        1.47987       -0.00000
C         -1.56615       -0.38248       -0.00000
H         -1.66346       -1.46824       -0.00000
C         -0.22785        0.17551       -0.00000
H         -0.14430        1.26287       -0.00000
C          0.89711       -0.56417        0.00000
H          0.87248       -1.64996        0.00000
C          2.21294        0.08159        0.00000
O          2.42381        1.28678        0.00000
O          3.22124       -0.81228       -0.00000
H          4.07081       -0.33053       -0.00000
