56
id_2129_ca.log	Energy: -1072119.6865411
C          2.69699       -0.52550       -0.74899
H          1.77154       -0.62205       -1.30998
C          3.60893       -1.57277       -0.75304
H          3.39166       -2.48364       -1.30224
C          4.81543       -1.45378       -0.05648
C          5.10180       -0.27773        0.64376
H          6.03207       -0.18019        1.19319
C          4.18612        0.76804        0.64539
H          4.40862        1.66876        1.20985
C          2.97304        0.65903       -0.04902
C          1.99556        1.77534       -0.04082
C          2.41810        3.11027       -0.03732
H          3.47777        3.34777       -0.06269
C          1.49545        4.15188       -0.03436
H          1.83167        5.18336       -0.05677
C          0.13460        3.86465       -0.01778
C         -0.31748        2.54431       -0.01543
C          0.62170        1.51225       -0.03503
H          0.26522        0.48461       -0.01003
C         -1.77434        2.18249        0.08506
O         -2.45690        2.54758        1.05221
N         -2.23872        1.42365       -0.91909
H         -1.57580        1.14341       -1.63445
C         -3.51281        0.71475       -0.87163
H         -4.18848        1.28426       -0.22741
H         -3.93061        0.71217       -1.88392
C         -3.38199       -0.72596       -0.36367
C         -2.45244       -1.54912       -1.27558
H         -2.83237       -1.51819       -2.30730
H         -1.44427       -1.10986       -1.28212
C         -2.37096       -3.00217       -0.78300
H         -1.70579       -3.57275       -1.44272
C         -1.81747       -3.01812        0.65041
H         -1.73595       -4.05300        1.00915
H         -0.80799       -2.58375        0.66653
C         -2.74829       -2.21558        1.57273
H         -2.35266       -2.22517        2.59576
C         -2.83241       -0.76446        1.07413
H         -1.83361       -0.30611        1.10758
H         -3.48703       -0.17500        1.73198
C         -4.15100       -2.84211        1.55443
H         -4.10492       -3.87570        1.92317
H         -4.81921       -2.28332        2.22370
C         -4.70632       -2.82184        0.12185
H         -5.71098       -3.26185        0.10785
C         -3.77473       -3.62641       -0.79774
H         -4.17146       -3.63162       -1.82210
H         -3.72398       -4.66998       -0.45904
C         -4.78032       -1.36979       -0.37489
H         -5.45628       -0.78581        0.26614
H         -5.18822       -1.34107       -1.39557
Cl        -1.00011        5.19059       -0.05579
C          5.76461       -2.59425       -0.08244
O          5.56017       -3.64388       -0.66854
O          6.89108       -2.36981        0.60773
H          7.45840       -3.16254        0.54901
