33
id_2130_ca.log	Energy: -529319.9071023
C         -2.31457       -1.81233        1.59593
H         -2.35359       -1.31562        2.56917
H         -1.27790       -2.10059        1.39572
H         -2.92379       -2.71944        1.64179
C         -2.83658       -0.86317        0.51992
C         -2.01513        0.41359        0.43712
C         -2.58017        1.65213        0.74492
H         -3.62677        1.70443        1.03443
C         -1.81414        2.81858        0.68471
H         -2.26517        3.77482        0.93178
C         -0.47810        2.75557        0.30682
H          0.12608        3.65642        0.25398
C          0.10295        1.51632        0.00769
C         -0.66707        0.35174        0.07373
H         -0.22311       -0.60894       -0.18080
C          1.52986        1.48504       -0.43060
O          2.00217        2.44007       -1.04239
C          2.38137        0.29891       -0.12416
C          2.18539       -0.47275        1.02830
H          1.38239       -0.23227        1.71928
C          3.04277       -1.53540        1.30781
H          2.89705       -2.12230        2.20955
C          4.08303       -1.84350        0.43094
H          4.74331       -2.67872        0.64582
C          4.27903       -1.07861       -0.72148
H          5.08751       -1.31979       -1.40493
C          3.43833       -0.00395       -0.99251
H          3.58532        0.59935       -1.88372
C         -2.85434       -1.53258       -0.83931
O         -2.35356       -2.60952       -1.09947
O         -3.48775       -0.79245       -1.76154
H         -3.46007       -1.25505       -2.62184
H         -3.87383       -0.58464        0.73806
