31
id_2177_ca.log	Energy: -340810.0574564
C          3.37548       -0.27518        1.25941
H          3.63293        0.78986        1.29356
H          4.30961       -0.84779        1.26930
H          2.81443       -0.51931        2.16787
C          2.56484       -0.60228       -0.00001
H          2.36420       -1.67650       -0.00003
C          3.37547       -0.27514       -1.25943
H          4.30960       -0.84775       -1.26935
H          3.63292        0.78990       -1.29354
H          2.81442       -0.51924       -2.16790
C          1.23425        0.13169        0.00000
C          1.20222        1.52732        0.00003
H          2.14100        2.07698        0.00005
C         -0.00501        2.22327        0.00005
H         -0.01305        3.30931        0.00008
C         -1.20121        1.51266        0.00003
H         -2.14466        2.05383        0.00004
C         -1.22472        0.11291       -0.00002
C          0.00987       -0.55990       -0.00002
O          0.09329       -1.93730       -0.00005
H         -0.79302       -2.32915        0.00000
C         -2.56872       -0.60130       -0.00003
H         -2.42429       -1.68792       -0.00013
C         -3.37312       -0.26507        1.26109
H         -4.31500       -0.82425        1.26935
H         -3.61437        0.80330        1.29542
H         -2.81406       -0.51864        2.16780
C         -3.37321       -0.26488       -1.26105
H         -3.61448        0.80349       -1.29521
H         -4.31508       -0.82408       -1.26934
H         -2.81420       -0.51831       -2.16784
