24
id_2286_cb.log	Energy: -278262.5031737
C         -3.33886        0.28381        0.03456
H         -4.40600        0.48111        0.06836
C         -2.43004        1.34319        0.01610
H         -2.78981        2.36769        0.03582
C         -1.06228        1.09095       -0.02632
H         -0.35734        1.91758       -0.04166
C         -0.57906       -0.22242       -0.05477
C         -1.49635       -1.27435       -0.03944
H         -1.13145       -2.29833       -0.06538
C         -2.86839       -1.02624        0.00751
H         -3.56726       -1.85737        0.01879
C          0.90414       -0.50081       -0.06890
C          1.64138       -0.08325        1.21802
H          1.18090        0.82188        1.62535
H          1.57600       -0.86325        1.98013
C          3.08932        0.20069        0.75358
H          3.81663       -0.47217        1.21299
H          3.37848        1.22411        1.00492
C          3.03948        0.00848       -0.77028
H          3.33997       -1.01928       -1.02484
H          3.69501        0.69482       -1.31213
N          1.62980        0.25728       -1.09967
H          1.41253       -0.13259       -2.01599
H          1.04777       -1.58536       -0.20911
