29
id_2169_ca.log	Energy: -584526.7511231
C         -5.46056       -1.54098        0.05302
H         -5.84028       -0.66715        0.58566
H         -5.86863       -2.45540        0.47916
H         -5.70290       -1.47149       -1.00906
O         -4.03616       -1.64005        0.22604
C         -3.31434       -0.61555       -0.22949
O         -3.80711        0.36277       -0.76119
C         -1.83780       -0.82683       -0.01605
H         -1.67035       -1.06559        1.03923
H         -1.53405       -1.70349       -0.59831
C         -1.02980        0.39077       -0.45308
C          0.46401        0.16027       -0.29923
C          1.01393       -0.08542        0.96514
H          0.37553       -0.10348        1.84467
C          2.37740       -0.30408        1.11216
H          2.81167       -0.49330        2.08681
C          3.17456       -0.27254       -0.02793
C          2.66252       -0.03010       -1.29721
H          3.31358       -0.01197       -2.16337
C          1.29517        0.18895       -1.42254
H          0.87069        0.38303       -2.40306
N          4.61241       -0.50294        0.11532
O          5.05683       -0.72361        1.23257
O          5.30944       -0.46534       -0.88829
C         -1.42117        1.61319        0.35795
O         -1.95743        1.57969        1.44759
O         -1.07100        2.75128       -0.24979
H         -1.30445        3.50900        0.32205
H         -1.23775        0.61650       -1.50295
