20
id_2395_ca.log	Energy: -429567.4627974
C          2.65381       -0.44971       -0.46452
H          2.85975       -0.27162       -1.52681
H          2.39161       -1.50306       -0.31559
C          1.51340        0.44120       -0.00729
C          0.24623        0.18680       -0.80916
C         -0.92163        1.00406       -0.34416
C         -1.90528        0.18984        0.06609
C         -1.44761       -1.17970       -0.11054
O         -2.04004       -2.21307        0.13829
O         -0.19481       -1.17174       -0.63417
O         -3.12149        0.52868        0.57318
H         -3.65031       -0.27977        0.70083
O         -0.82700        2.33757       -0.38175
H         -1.64615        2.75218       -0.05220
O          1.21423        0.22513        1.36136
H          2.05356        0.26161        1.85169
O          3.77748       -0.10158        0.33845
H          4.45255       -0.79151        0.24581
H          1.79294        1.49165       -0.17503
H          0.44562        0.34576       -1.87405
