61
id_2115_cb.log	Energy: -990782.5201753
C          4.05700        0.96540       -0.39803
H          5.05610        0.54476       -0.47380
C          3.90250        2.26941        0.06501
H          4.76809        2.86569        0.33325
C          2.62871        2.81191        0.18060
C          1.49984        2.07068       -0.17870
C          1.68796        0.77710       -0.67213
H          0.81471        0.19270       -0.95561
C          2.95459        0.19925       -0.78029
C          3.11857       -1.22098       -1.25693
H          2.41451       -1.41757       -2.07578
H          4.13019       -1.34837       -1.65935
C          2.88849       -2.27725       -0.16091
H          3.54946       -2.04526        0.68863
C          3.25558       -3.66813       -0.68795
H          4.31401       -3.69747       -0.97458
H          2.66758       -3.87019       -1.59570
C          2.96080       -4.75496        0.34469
H          3.60291       -4.60639        1.22221
H          3.19909       -5.74108       -0.06491
N          1.56907       -4.76656        0.81289
H          0.98512       -4.92887       -0.01030
C          1.20656       -3.44185        1.33059
H          0.15521       -3.46175        1.63631
H          1.80137       -3.26731        2.23623
C          1.44233       -2.29740        0.34519
H          0.77053       -2.42222       -0.51864
H          1.17779       -1.34732        0.82546
C          0.09215        2.54267        0.05882
O         -0.24072        3.04689        1.13387
N         -0.76833        2.32180       -0.95603
H         -0.41332        1.85095       -1.78011
C         -2.21142        2.32393       -0.75622
H         -2.43299        3.04851        0.03177
H         -2.68236        2.67520       -1.68007
C         -2.77917        0.94844       -0.38256
C         -2.53284       -0.07375       -1.50789
H         -2.96403        0.30367       -2.44586
H         -1.45203       -0.19909       -1.66895
C         -3.15719       -1.43017       -1.14528
H         -2.97300       -2.14344       -1.95717
C         -4.66979       -1.25819       -0.94052
H         -5.13533       -0.90137       -1.86852
H         -5.12612       -2.22567       -0.69426
C         -4.92526       -0.25430        0.19377
H         -6.00443       -0.12616        0.33788
C         -4.29704        1.09770       -0.17442
H         -4.48467        1.83030        0.62283
H         -4.75497        1.48847       -1.09382
C         -4.28766       -0.77410        1.49113
H         -4.47872       -0.06930        2.31082
H         -4.73891       -1.73481        1.77105
C         -2.77475       -0.94481        1.28846
H         -2.31578       -1.31230        2.21416
C         -2.52202       -1.94861        0.15381
H         -2.94804       -2.92594        0.41571
H         -1.44158       -2.08766        0.01190
C         -2.15218        0.40996        0.91687
H         -1.06689        0.28729        0.78568
H         -2.30526        1.13465        1.72815
Cl         2.48928        4.46846        0.72434
