29
id_2182_ca.log	Energy: -797805.5770922
C          2.10838        3.29011       -0.04968
H          2.05457        4.35414        0.15996
C          1.38548        2.75067       -1.11486
H          0.76589        3.39071       -1.73574
C          1.44367        1.38367       -1.37797
H          0.86884        0.94631       -2.19105
C          2.24907        0.56499       -0.58418
C          2.98714        1.09636        0.47276
H          3.61970        0.44738        1.07003
C          2.90457        2.46180        0.74234
H          3.47512        2.87925        1.56645
N          2.30891       -0.84642       -0.85033
H          2.04705       -1.07701       -1.81320
S          1.44604       -1.83372        0.18462
O          2.01266       -1.68125        1.51977
O          1.42447       -3.14836       -0.45130
C         -0.20840       -1.17024        0.21244
C         -0.54271       -0.24091        1.19462
H          0.16166        0.02340        1.97666
C         -1.80462        0.34365        1.15874
H         -2.10365        1.06868        1.90615
C         -2.66920       -0.02655        0.13673
C         -2.34289       -0.94912       -0.85059
H         -3.05191       -1.20711       -1.62791
C         -1.08103       -1.53028       -0.81225
H         -0.78854       -2.25181       -1.56859
N         -4.00376        0.59204        0.09564
O         -4.75967        0.26753       -0.80528
O         -4.28974        1.39974        0.96399
