25
id_2374_cb.log	Energy: -481063.8248598
C         -3.97591       -0.23902        0.01953
H         -4.18625        0.10463       -0.99930
H         -3.95182        0.63988        0.67223
H         -4.80957       -0.86913        0.34163
C         -2.66009       -1.00935        0.07118
H         -2.73923       -1.92601       -0.52293
H         -2.43746       -1.31027        1.10246
C         -1.48988       -0.18962       -0.45842
C         -1.28134        1.10555        0.34256
H         -1.51728        0.95684        1.40127
H         -1.87397        1.93479       -0.04507
S          0.49415        1.48051        0.17727
C          0.77939       -0.25555       -0.19431
N         -0.24348       -0.96575       -0.45487
C          2.19104       -0.77653       -0.17063
H          2.14741       -1.77736       -0.61184
C          3.12486        0.10062       -1.00676
H          3.22475        1.09977       -0.56701
H          2.76123        0.21051       -2.03277
H          4.12204       -0.34802       -1.03934
C          2.69169       -0.89360        1.27285
H          2.75868        0.09284        1.74339
H          3.68899       -1.34369        1.28305
H          2.02364       -1.51807        1.87340
H         -1.69174        0.07043       -1.50755
