9
id_2408_ca.log	Energy: -334371.6030073
C         -1.61628       -0.00986       -0.16320
H         -2.14089       -0.88855        0.22283
H         -1.70077        0.01681       -1.25363
H         -2.05957        0.89485        0.26319
P          0.11477       -0.11147        0.28272
O          0.85315       -1.29384       -0.27885
O          0.81113        1.25149       -0.24797
H          0.37616        2.07494        0.04344
H          0.18698       -0.02807        1.67711
