23
id_2253_cb.log	Energy: -337665.3890480
C          4.34017       -0.09582        0.38567
H          4.20778        0.74748        1.07232
H          5.38023       -0.09813        0.04347
H          4.16294       -1.02010        0.94649
C          3.37379        0.01309       -0.79860
H          3.54013       -0.82835       -1.48081
H          3.58522        0.93193       -1.35702
C          1.93386        0.01867       -0.34599
C          1.27225        1.21810       -0.06127
H          1.79341        2.16236       -0.20794
C         -0.04198        1.22096        0.40642
H         -0.53801        2.16539        0.62012
C         -0.73389        0.02172        0.60514
C         -0.07308       -1.17988        0.32479
H         -0.59468       -2.12318        0.47380
C          1.24022       -1.18020       -0.14294
H          1.73647       -2.12564       -0.35457
C         -2.17736        0.02045        1.05455
H         -2.38827        0.92304        1.63518
H         -2.37988       -0.85926        1.67100
C         -3.09163       -0.00327       -0.17974
O         -3.53536       -1.12330       -0.55981
O         -3.30958        1.09850       -0.75897
