7
id_2062_cb.log	Energy: -431802.7568836
C         -0.18501       -0.80548       -0.00021
H         -0.17319       -1.43936        0.88709
H         -0.17325       -1.43884       -0.88790
C          1.06648        0.08348       -0.00001
O          0.96816        1.33120       -0.00009
O          2.13712       -0.58700        0.00017
Cl        -1.75204        0.07392        0.00009
