27
id_2095_ca.log	Energy: -372957.4483903
C          0.66781        1.92997        0.05776
H          0.31076        2.95643        0.07880
C          2.03813        1.68093        0.02581
H          2.75904        2.49460        0.02337
C          2.48991        0.36734       -0.01209
C          1.57253       -0.68554       -0.01745
C          0.19717       -0.44650        0.02792
C         -0.25606        0.88207        0.06177
C         -1.73647        1.19704        0.12116
H         -1.95169        2.08953       -0.47620
H         -2.02483        1.42213        1.15822
C         -2.56912        0.02172       -0.36429
C         -2.18047       -1.25295        0.36402
H         -2.26691       -1.07880        1.44459
H         -2.85845       -2.07047        0.09748
C         -0.74496       -1.62948       -0.00038
H         -0.72666       -2.07320       -1.00500
H         -0.38587       -2.40552        0.68281
N         -4.01782        0.32092       -0.12000
H         -4.61517       -0.44477       -0.45283
H         -4.30875        1.18044       -0.60076
H         -4.20095        0.44647        0.88366
O          2.01189       -1.98606       -0.07258
H          2.98537       -1.99259       -0.08529
O          3.81661        0.00510       -0.05305
H         -2.46976       -0.10771       -1.44598
H          4.37968        0.79712       -0.04311
