25
id_222_ca.log	Energy: -385131.3240628
C          4.08635       -1.16945        0.27648
H          4.65814       -0.27595        0.00482
H          4.62184       -2.06082       -0.04974
H          3.94245       -1.20262        1.36150
O          2.83550       -1.19627       -0.40136
C          1.96417       -0.16798       -0.15871
C          2.23276        0.89501        0.70382
H          3.17161        0.96544        1.24091
C          1.26006        1.88740        0.86815
H          1.46635        2.71959        1.53555
C          0.04734        1.82582        0.19233
H         -0.69359        2.61016        0.32848
C         -0.22102        0.75426       -0.67462
C          0.74266       -0.23557       -0.84134
H          0.55983       -1.07859       -1.50365
C         -1.54014        0.68023       -1.41096
H         -1.67826        1.59247       -2.00147
H         -1.52812       -0.16136       -2.11028
C         -2.74025        0.55168       -0.47263
H         -3.67680        0.58353       -1.04373
H         -2.78394        1.37748        0.24424
C         -2.75341       -0.74326        0.29086
O         -2.11619       -1.73979        0.00430
O         -3.58721       -0.70842        1.34359
H         -3.58734       -1.58229        1.78096
