54
id_203_cb.log	Energy: -642223.0726759
C         -2.79876       -1.64014        2.59360
H         -2.13609       -2.41393        2.99061
H         -3.24503       -2.00959        1.66450
H         -3.60108       -1.46975        3.31577
C         -2.01938       -0.34204        2.35406
H         -1.62673        0.02997        3.30681
H         -2.66976        0.42765        1.93218
C         -0.82492       -0.60218        1.45501
O          0.06893       -1.33885        1.83568
C         -0.82679       -0.02893        0.02107
C          0.49201       -0.39766       -0.69425
H          0.36188       -0.22568       -1.76839
H          0.68161       -1.46342       -0.55761
C          1.69816        0.40187       -0.19569
H          1.64732        0.53694        0.90054
H          1.66420        1.40544       -0.63238
N          2.97341       -0.21038       -0.57459
C          3.26279       -1.35013        0.30539
H          3.30213       -1.01005        1.35933
H          2.44796       -2.07568        0.23618
C          4.58500       -2.01866       -0.05387
H          4.75480       -2.86434        0.62093
H          4.51841       -2.42008       -1.07273
C          5.73292       -1.01447        0.03004
H          5.86303       -0.70581        1.07628
H          6.67504       -1.46905       -0.29366
C          5.40250        0.21406       -0.81549
H          5.38297       -0.06375       -1.87673
H          6.16571        0.99007       -0.69405
C          4.04296        0.78395       -0.42790
H          3.80080        1.64450       -1.05973
H          4.08633        1.14867        0.61736
C         -2.03541       -0.74584       -0.61306
C         -1.91372       -2.07680       -1.03093
H         -0.95612       -2.58376       -0.97405
C         -3.01638       -2.78126       -1.50948
H         -2.89459       -3.81129       -1.83033
C         -4.26752       -2.17254       -1.56802
H         -5.12784       -2.72176       -1.93756
C         -4.40452       -0.85265       -1.14403
H         -5.37421       -0.36565       -1.17954
C         -3.30062       -0.14821       -0.66953
H         -3.43049        0.87739       -0.33844
C         -0.96655        1.49246        0.01212
C         -0.68660        2.27102        1.13765
H         -0.42793        1.79915        2.08268
C         -0.71682        3.66442        1.06829
H         -0.49828        4.24902        1.95659
C         -1.01765        4.29971       -0.13208
H         -1.04061        5.38357       -0.18730
C         -1.28387        3.53246       -1.26663
H         -1.51188        4.01691       -2.21118
C         -1.25586        2.14386       -1.19388
H         -1.46277        1.55404       -2.08354
