10
id_2004_ca.log	Energy: -191464.9774500
C          2.93717        0.02936       -0.00034
H          3.29913        1.05329       -0.12297
H          3.32630       -0.58558       -0.81679
H          3.31857       -0.36916        0.94428
C          1.48079       -0.00242       -0.00045
C          0.27131       -0.02658       -0.00007
C         -1.17036       -0.10756        0.00003
O         -1.79266       -1.15307        0.00004
O         -1.74940        1.09811        0.00003
H         -2.72096        0.98433       -0.00006
