29
id_2233_cb.log	Energy: -303671.5099761
C         -2.71538       -1.27472        0.92937
H         -1.82030       -1.64080        1.44113
H         -3.46282       -2.07440        0.94129
H         -3.11293       -0.43106        1.49918
C         -2.40713       -0.87389       -0.51303
H         -3.29977       -0.44012       -0.97141
H         -2.16661       -1.76510       -1.10212
N         -1.33360        0.10381       -0.67416
C         -1.71803        1.51148       -0.64385
H         -1.00053        2.08176       -1.24173
H         -2.67604        1.59112       -1.16477
C         -1.84138        2.12581        0.75047
H         -2.69023        1.70335        1.29440
H         -1.99623        3.20658        0.67071
H         -0.93642        1.95439        1.34156
C         -0.03202       -0.25649       -0.34828
C          0.33787       -1.61167       -0.19801
H         -0.40219       -2.39820       -0.28285
C          1.65771       -1.96064        0.06178
H          1.90762       -3.01239        0.17211
C          2.65231       -0.99494        0.19023
H          3.67920       -1.27953        0.40122
C          2.31195        0.35322        0.05464
C          0.98797        0.70902       -0.20227
H          0.75680        1.76537       -0.28500
C          3.36857        1.42385        0.16184
H          3.83176        1.61258       -0.81352
H          4.16493        1.12477        0.84915
H          2.94423        2.36880        0.51226
