14
id_2404_cb.log	Energy: -263671.5804485
C         -1.13549        0.14214        0.00000
H         -2.12663        0.59100        0.00000
C         -1.00034       -1.22629        0.00000
H         -1.87642       -1.87065        0.00000
C          0.29380       -1.85666        0.00000
C          1.43072       -0.98109        0.00000
H          2.42034       -1.43145       -0.00000
C          1.27936        0.38851       -0.00000
H          2.15879        1.03149       -0.00000
C         -0.00000        0.98628       -0.00000
C         -0.11030        2.42178       -0.00000
H          0.84916        2.97086       -0.00000
O         -1.16731        3.06752       -0.00000
O          0.42084       -3.13492        0.00000
