31
id_270_ca.log	Energy: -357884.2260953
C          5.14114        1.21984        0.00478
H          4.43658        2.02521       -0.23182
H          6.13371        1.52303       -0.33740
H          5.18524        1.08871        1.08802
C          4.74934       -0.05542       -0.72085
H          5.34776       -0.90245       -0.37613
C          4.83533        0.08410       -2.23054
H          4.21466        0.91804       -2.57486
H          4.51232       -0.83213       -2.73349
H          5.87139        0.28575       -2.51195
N          3.32244       -0.41801       -0.37441
H          2.71591        0.36745       -0.65206
C          3.08162       -0.76564        1.05684
H          3.74864       -1.59506        1.29633
H          3.34879        0.09582        1.66697
C          1.63531       -1.19227        1.30055
C          0.60878       -0.11705        0.96551
C          0.88833        1.24452        1.12094
H          1.86135        1.57577        1.47171
C         -0.08303        2.19890        0.83183
H          0.14487        3.25314        0.95098
C         -1.34686        1.81622        0.38851
H         -2.10055        2.56198        0.16284
C         -1.61834        0.46026        0.24390
C         -0.66003       -0.50682        0.52566
H         -0.89460       -1.55935        0.41276
I         -3.54299       -0.15009       -0.42051
O          1.36195       -2.42136        0.65061
H          1.09052       -2.24695       -0.26663
H          1.57489       -1.40857        2.37298
H          3.04482       -1.21878       -0.95786
