11
id_257_cb.log	Energy: -973807.4869250
C         -1.57861        1.05457       -0.42693
H         -2.05667        0.86239       -1.39721
H         -1.05651        2.00772       -0.50474
C         -0.57241       -0.03887       -0.20078
C          0.74444        0.11053       -0.04061
Cl         1.50493        1.66579       -0.06457
Cl         1.84367       -1.19702        0.20515
Cl        -1.26469       -1.63442       -0.14818
N         -2.51702        1.12575        0.69572
H         -3.17088        0.34755        0.61536
H         -3.08376        1.96081        0.55560
