15
id_2404_ca.log	Energy: -263960.4250858
C         -0.42035       -1.07247        0.00000
H         -1.05405       -1.95495        0.00000
C          0.95801       -1.20890        0.00000
H          1.42420       -2.19056       -0.00000
C          1.76242       -0.06004       -0.00000
C          1.19364        1.21735       -0.00000
H          1.84127        2.08846        0.00000
C         -0.18789        1.34096        0.00000
H         -0.64457        2.32811        0.00000
C         -1.00560        0.20259        0.00000
C         -2.45956        0.37648        0.00000
H         -2.81359        1.42203        0.00000
O         -3.27241       -0.54085       -0.00000
O          3.12155       -0.13479       -0.00000
H          3.40959       -1.06386        0.00001
