21
id_2392_cb.log	Energy: -588175.4212377
C          2.91310        1.21405       -0.09870
H          3.44695        2.15442        0.00450
C          1.54457        1.21478       -0.33550
H          0.99181        2.14462       -0.42183
C          0.88043        0.00343       -0.46682
C          1.55109       -1.20673       -0.36021
H          1.00458       -2.13817       -0.46633
C          2.91974       -1.20273       -0.12255
H          3.45886       -2.14194       -0.03792
C          3.62040        0.00635        0.01018
N          5.00139        0.00883        0.18009
H          5.36068       -0.83078        0.62183
H          5.35540        0.84181        0.63829
O         -0.50017        0.00570       -0.75881
C         -1.31377       -0.02691        0.32067
C         -2.76789        0.01887       -0.16003
F         -2.98887        1.13862       -0.84250
F         -3.02528       -1.02415       -0.94387
F         -3.58807       -0.01636        0.88720
F         -1.14550       -1.14452        1.05611
F         -1.10925        1.01709        1.14851
