14
id_263_ca.log	Energy: -296489.6940331
C          2.18211        0.64057       -0.08255
H          2.18311        0.84029       -1.15329
H          3.19900        0.58810        0.30070
H          1.61438        1.39616        0.45489
N          1.54734       -0.69566        0.14066
H          1.43804       -0.85754        1.15071
C          0.24382       -0.91268       -0.54070
H          0.37690       -0.75098       -1.61073
H         -0.07040       -1.93849       -0.34794
C         -0.81904        0.02316       -0.01256
F         -0.63146        1.28962       -0.40480
F         -2.01663       -0.36392       -0.45255
F         -0.84093        0.01997        1.32764
H          2.18737       -1.42523       -0.19668
