51
id_2123_ca.log	Energy: -1101308.5784409
C          2.66782        1.32138       -1.37241
H          3.52210        1.55713       -2.00994
H          3.00032        0.67343       -0.55202
H          1.90834        0.81635       -1.96972
N          2.14468        2.60108       -0.85959
C          3.10104        3.30186        0.01477
H          3.37794        2.68776        0.88058
H          3.99372        3.49683       -0.58178
H          2.68298        4.25161        0.34546
S          0.59083        2.58251       -0.34434
O          0.21583        3.92698        0.07070
O         -0.22709        1.91484       -1.34407
N          0.63997        1.61600        1.04488
H          1.53713        1.19529        1.29250
C         -0.50628        1.26249        1.72553
O         -1.60104        1.68060        1.36738
C         -0.31113        0.41972        2.96436
H         -0.52944        1.09653        3.79985
H          0.73165        0.10996        3.07025
C         -1.26212       -0.77966        3.03178
H         -2.28359       -0.42864        2.84854
H         -1.24098       -1.16759        4.05504
C         -0.92085       -1.93267        2.07112
H         -1.66260       -2.72558        2.23400
H          0.05065       -2.35976        2.33730
C         -0.94883       -1.54589        0.62025
C         -2.15571       -1.19875       -0.08470
C         -3.49583       -1.09881        0.30367
H         -3.81371       -1.32260        1.31814
C         -4.42729       -0.69417       -0.65253
C         -4.05400       -0.38758       -1.98619
H         -4.81662       -0.06777       -2.68892
C         -2.73636       -0.49906       -2.38658
H         -2.43533       -0.27401       -3.40503
C         -1.80249       -0.91660       -1.42868
N         -0.46221       -1.12967       -1.54610
H          0.09195       -0.83184       -2.34136
C          0.07138       -1.47562       -0.31086
C          1.51851       -1.73129       -0.22027
C          2.23698       -1.51959        0.96564
H          1.73138       -1.17574        1.85910
C          3.61462       -1.71397        1.02119
H          4.17380       -1.54520        1.93583
C          4.26887       -2.10754       -0.13396
C          3.60460       -2.32907       -1.32965
H          4.15540       -2.64487       -2.20982
C          2.22581       -2.14549       -1.36149
H          1.70175       -2.33579       -2.29334
F          5.61062       -2.28442       -0.09355
C         -5.80671       -0.58216       -0.27798
N         -6.92522       -0.49175        0.02317
