22
id_2338_ca.log	Energy: -206791.9789794
C          2.51368       -0.79810        0.16448
H          3.34082       -1.08937       -0.48715
H          2.47584       -1.50164        1.00208
H          2.72381        0.20401        0.54516
C          1.23610       -0.84641       -0.64821
H          1.12758       -1.80518       -1.15736
H          1.18975       -0.04652       -1.39064
N          0.00008       -0.70493        0.20199
C         -1.23591       -0.84667       -0.64821
H         -1.18969       -0.04683       -1.39069
H         -1.12723       -1.80546       -1.15729
C         -2.51350       -0.79851        0.16448
H         -2.47555       -1.50200        1.00212
H         -3.34059       -1.08993       -0.48713
H         -2.72376        0.20359        0.54511
C         -0.00006        0.54673        1.03313
H         -0.88157        0.51515        1.67562
H          0.88148        0.51535        1.67561
C         -0.00020        1.73734        0.18903
C         -0.00032        2.71782       -0.51081
H         -0.00042        3.59390       -1.12769
H          0.00016       -1.48385        0.87510
