26
id_2243_cb.log	Energy: -372646.3373136
C         -3.94965        1.06400        0.11975
H         -3.75629        1.45520        1.12784
H         -5.00500        0.80419        0.04197
H         -3.74859        1.85798       -0.60389
N         -3.15370       -0.11981       -0.17511
C         -3.76711       -1.40819        0.11789
H         -3.51478       -1.76965        1.12400
H         -3.45515       -2.16230       -0.60896
H         -4.84932       -1.30453        0.04454
C         -1.78472       -0.01818       -0.10539
C         -0.96281       -1.17116       -0.08222
H         -1.40520       -2.15936       -0.08957
C          0.41563       -1.06151       -0.04887
H          1.01634       -1.96487       -0.03418
C          1.03877        0.19223       -0.02640
C          0.23413        1.33739       -0.03326
H          0.70404        2.31576       -0.00566
C         -1.14450        1.24447       -0.06685
H         -1.72967        2.15529       -0.06113
C          2.50221        0.35215        0.01352
O          3.08208        1.42622        0.04176
O          3.16262       -0.81640        0.01561
C          4.59080       -0.71998        0.05288
H          4.91269       -0.20434        0.95986
H          4.95478       -1.74582        0.05072
H          4.95788       -0.18470       -0.82511
