32
id_2359_ca.log	Energy: -669062.1595170
C          3.09209        0.74608        0.06422
H          3.54097        1.58099       -0.46718
C          3.62080       -0.53033       -0.08235
H          4.48385       -0.72499       -0.70913
C          3.01758       -1.57460        0.60648
C          1.91448       -1.39532        1.42677
H          1.48082       -2.24391        1.94371
C          1.39330       -0.11189        1.55485
H          0.52291        0.05552        2.18458
C          1.97446        0.96465        0.87659
C          1.37248        2.33346        0.97373
H          2.11425        3.12645        0.87557
H          0.79245        2.47270        1.88675
N          0.38643        2.58331       -0.17644
H          0.89362        2.54544       -1.07432
C         -0.72633        1.64305       -0.18542
C         -1.84116        1.94700        0.58069
H         -1.89064        2.90108        1.09566
C         -2.88044        1.02989        0.69174
H         -3.76196        1.25813        1.27793
C         -2.75781       -0.18888        0.04409
C         -1.65353       -0.53321       -0.71654
H         -1.57841       -1.49270       -1.21353
C         -0.64284        0.40456       -0.82790
N          0.50888        0.03951       -1.65821
O          0.80406       -1.13329       -1.72834
O          1.09868        0.93912       -2.24105
N         -3.84516       -1.16982        0.16634
O         -3.71657       -2.23297       -0.41203
O         -4.81053       -0.86214        0.84003
F          3.52547       -2.80912        0.47152
H          0.01835        3.54004       -0.07606
