29
id_2217_ca.log	Energy: -233012.2844735
C          1.74103        1.43485       -0.32198
H          1.09610        1.83309       -1.10865
H          2.77135        1.46687       -0.69455
H          1.67631        2.10212        0.54525
C          1.38016       -0.00394        0.06976
C          1.44967       -0.90381       -1.16896
H          1.15310       -1.93426       -0.93602
H          2.47848       -0.93711       -1.54449
H          0.82864       -0.52664       -1.99107
C          2.43378       -0.49233        1.07499
H          3.43823       -0.41119        0.64560
H          2.26206       -1.53989        1.34704
H          2.40671        0.10652        1.99271
C          0.02505       -0.08417        0.81397
H          0.03587        0.69266        1.58909
H         -0.01217       -1.04264        1.35147
C         -1.33286        0.05974        0.10581
C         -1.45282        1.21052       -0.88358
H         -0.79719        1.07784       -1.74792
H         -1.18790        2.14512       -0.38240
H         -2.48532        1.28875       -1.23977
C         -2.43125        0.15108        1.16204
H         -3.42059        0.13141        0.69365
H         -2.32580        1.09228        1.70710
H         -2.35907       -0.67542        1.87629
N         -1.62021       -1.21660       -0.66590
H         -1.56576       -2.03723       -0.04944
H         -0.96166       -1.36121       -1.43902
H         -2.56645       -1.18653       -1.06590
