39
id_2125_ca.log	Energy: -495314.5915361
C         -3.98132       -0.73823       -0.17836
H         -4.64149       -0.14289        0.45272
H         -4.52403       -1.57770       -0.61208
H         -3.55599       -0.11565       -0.96346
N         -2.89311       -1.28881        0.68174
C         -2.01908       -2.27787       -0.05054
H         -1.36691       -2.73868        0.69506
H         -2.71464       -3.03665       -0.41221
C         -1.20334       -1.73081       -1.22376
H         -1.64969       -0.82170       -1.64164
H         -1.21247       -2.48835       -2.00914
O          0.17129       -1.53250       -0.94348
C          0.47463       -0.64178        0.12528
C         -0.28428        0.66953       -0.01620
C          0.22257        1.68130       -0.83444
H          1.18727        1.54210       -1.31438
C         -0.48345        2.86363       -1.03287
H         -0.07016        3.63971       -1.66928
C         -1.71437        3.04961       -0.40807
H         -2.26760        3.97264       -0.54784
C         -2.23329        2.04348        0.39947
H         -3.19424        2.18032        0.88853
C         -1.53629        0.84630        0.59520
C         -2.17461       -0.20876        1.46262
H         -2.94634        0.24292        2.08821
H         -1.46969       -0.72525        2.11477
C          1.97612       -0.44831        0.16843
C          2.54729        0.06762        1.33516
H          1.90907        0.29717        2.18564
C          3.91870        0.28583        1.41267
H          4.35142        0.68430        2.32515
C          4.73565       -0.01195        0.32116
H          5.80668        0.15493        0.38062
C          4.17047       -0.52585       -0.84259
H          4.79989       -0.76054       -1.69565
C          2.79412       -0.74244       -0.92174
H          2.35767       -1.14362       -1.82997
H          0.18898       -1.11783        1.07091
H         -3.36352       -1.85133        1.40125
