19
id_2137_ca.log	Energy: -397786.9415717
C         -2.25399        0.00233        0.32298
H         -2.21631        0.00355        1.42179
H         -3.31223        0.00354        0.03769
C         -1.56155        1.25990       -0.20500
H         -2.03553        2.16027        0.20226
H         -1.67454        1.30359       -1.29750
C         -0.06969        1.26160        0.14489
H          0.04838        1.29975        1.23807
H          0.42190        2.14926       -0.26752
C          0.61535       -0.00302       -0.37560
H          0.57742       -0.00527       -1.47296
C         -0.07350       -1.26340        0.14997
H          0.41588       -2.15385       -0.25901
H          0.04399       -1.29785        1.24324
C         -1.56489       -1.25835       -0.20182
H         -1.67650       -1.30345       -1.29447
H         -2.04227       -2.15658        0.20617
S          2.41380       -0.00333       -0.00639
H          2.27858        0.05600        1.33188
