11
id_231_ca.log	Energy: -212999.2688930
C          1.77302        0.08054       -0.00000
H          2.85641        0.12441        0.00000
C          1.10751       -1.13561       -0.00001
H          1.65876       -2.07038       -0.00000
N         -0.22992       -1.21896        0.00000
C         -0.88169       -0.06846        0.00002
C         -0.22143        1.17169        0.00000
H         -0.79042        2.09729       -0.00001
N          1.10263        1.24297       -0.00000
O         -2.23217       -0.16576       -0.00001
H         -2.64086        0.71757       -0.00002
