40
id_2355_cb.log	Energy: -495789.5794195
C          5.29188        1.33909       -0.00746
H          5.73182        1.95825        0.78062
H          5.63102        1.71929       -0.97749
H          5.67665        0.32211        0.11634
C          3.77106        1.38851        0.07381
H          3.47376        1.03120        1.07252
C          3.26586        2.81683       -0.07380
H          3.69135        3.45953        0.70241
H          2.17350        2.85493        0.01212
H          3.54787        3.22206       -1.05197
N          3.16912        0.57286       -0.99562
H          2.17898        0.81769       -1.04064
C          3.25187       -0.86721       -0.79088
H          2.84446       -1.36953       -1.67643
H          4.30510       -1.16145       -0.71170
C          2.50288       -1.44266        0.42877
C          1.03831       -1.08864        0.37072
C          0.14383       -1.85042       -0.38577
H          0.49626       -2.74095       -0.89736
C         -1.19141       -1.47706       -0.49094
H         -1.86634       -2.07578       -1.09610
C         -1.67122       -0.32509        0.14728
C         -0.76935        0.43973        0.89741
H         -1.11872        1.32385        1.42302
C          0.56520        0.06071        1.00859
H          1.24517        0.65659        1.61399
C         -3.09773        0.07130        0.03180
C         -4.10703       -0.89844       -0.03776
H         -3.84448       -1.95118        0.01694
C         -5.44409       -0.52748       -0.14921
H         -6.21197       -1.29373       -0.19571
C         -5.79731        0.82016       -0.19156
H         -6.84004        1.10939       -0.27808
C         -4.80239        1.79383       -0.12152
H         -5.06629        2.84629       -0.16074
C         -3.46512        1.42297       -0.01198
H         -2.69599        2.18956        0.01907
O          2.63064       -2.86102        0.42441
H          3.57828       -3.06299        0.36379
H          2.92919       -1.03382        1.35434
