19
id_288_cb.log	Energy: -431752.6352513
C          2.46450       -1.21607       -0.03302
H          2.31975       -2.29734       -0.04274
H          3.02054       -0.93545        0.86718
H          3.06389       -0.92039       -0.89921
C          1.14129       -0.52312       -0.05618
N          0.01423       -1.10848       -0.11587
C         -1.12531       -0.17756       -0.01052
C         -0.63697        1.24119       -0.38489
H         -1.16471        2.01359        0.17798
H         -0.75542        1.43332       -1.45461
S          1.13850        1.26799        0.01964
C         -2.24097       -0.61052       -0.95340
H         -1.88108       -0.65155       -1.98597
H         -3.07128        0.10116       -0.90346
H         -2.61652       -1.59962       -0.67382
C         -1.60885       -0.21413        1.43972
H         -0.82781        0.14685        2.11768
H         -1.87137       -1.23675        1.72586
H         -2.49382        0.41891        1.55762
