21
id_2335_cb.log	Energy: -253590.9980946
C          3.04284       -0.18173       -0.24876
H          4.10397       -0.33525       -0.41860
C          2.54240        1.10041       -0.03033
H          3.21321        1.95460       -0.02883
C          1.18042        1.29364        0.18730
H          0.79663        2.29656        0.35664
C          0.28958        0.21297        0.19423
C          0.80529       -1.07232       -0.02437
H          0.14062       -1.93301       -0.02175
C          2.16648       -1.26623       -0.24482
H          2.54392       -2.27074       -0.41240
C         -1.16007        0.45382        0.40719
C         -2.04153       -0.58629        1.07291
H         -2.81712       -0.21304        1.73620
H         -1.57533       -1.51474        1.38954
C         -2.20222       -0.32032       -0.37825
N         -3.42099        0.28503       -0.85846
H         -3.19147        0.90357       -1.63596
H         -3.78546        0.89338       -0.12564
H         -1.42285        1.48822        0.61585
H         -1.79841       -1.06845       -1.05629
