56
id_2102_ca.log	Energy: -1064458.3024063
C          3.51592        1.53617        2.14772
H          3.88958        1.78817        3.14551
H          4.11158        0.69954        1.76397
H          2.48219        1.18961        2.25665
C          3.60549        2.73723        1.21226
H          4.63832        3.10015        1.16710
H          2.99537        3.56594        1.59807
C          3.16256        2.42925       -0.21827
H          3.74126        1.58085       -0.60150
C          3.35939        3.63516       -1.14173
H          2.77289        4.47533       -0.74591
H          4.41492        3.92687       -1.08243
C          2.97904        3.36960       -2.59494
H          3.15689        4.25846       -3.20861
H          3.57064        2.54704       -3.01182
H          1.91972        3.10676       -2.69097
N          1.76078        2.00263       -0.20190
H          1.14710        2.47306        0.45712
C          1.25388        1.03144       -0.97211
O          1.93875        0.37073       -1.77989
C         -0.18980        0.74780       -0.83954
C         -1.19444        1.42405       -0.17025
H         -1.17879        2.32625        0.42700
N         -2.33129        0.71963       -0.35280
N         -2.14451       -0.38048       -1.11302
C         -0.85607       -0.36913       -1.40294
N         -0.27604       -1.40330       -2.17169
H          0.64084       -1.09432       -2.51841
S         -0.05801       -2.86898       -1.36524
O          0.84233       -3.63218       -2.22862
O         -1.38397       -3.39886       -1.06142
C          0.75747       -2.47637        0.15492
C          2.14455       -2.34082        0.15604
H          2.72223       -2.53064       -0.74411
C          2.77514       -1.95948        1.33645
H          3.85704       -1.85901        1.35456
C          2.03808       -1.70750        2.50052
C          0.64281       -1.83327        2.45873
H          0.05995       -1.63245        3.35402
C         -0.00902       -2.21700        1.29167
H         -1.09011       -2.31920        1.26683
C          2.72490       -1.32764        3.78334
H          3.77085       -1.06245        3.60997
H          2.22145       -0.48209        4.26220
H          2.69859       -2.16690        4.48794
C         -3.62534        1.02603        0.16255
C         -4.00461        2.35857        0.31607
H         -3.33679        3.15964        0.01382
C         -5.26210        2.64727        0.84261
H         -5.56281        3.68342        0.96356
C         -6.13389        1.61661        1.19375
H         -7.11500        1.84730        1.59736
C         -5.74316        0.28821        1.02051
H         -6.41579       -0.51922        1.29316
C         -4.48388       -0.01609        0.50894
H         -4.16489       -1.04578        0.38640
