26
id_2252_cb.log	Energy: -395927.1975603
C         -2.49426        1.51039       -1.07177
H         -1.49365        1.56770       -1.51343
H         -2.61971        2.36269       -0.39451
H         -3.22927        1.60281       -1.87744
C         -2.68886        0.18974       -0.34175
C         -1.79808        0.03699        0.90861
C         -0.31897        0.19365        0.60440
C          0.29163        1.44489        0.68289
H         -0.28871        2.30739        1.00014
C          1.64071        1.60340        0.36466
H          2.12536        2.57259        0.42914
C          2.39277        0.50600       -0.02973
C          1.78883       -0.75622       -0.10387
C          0.44627       -0.90965        0.21038
H          0.00536       -1.90239        0.16242
O          2.61046       -1.78419       -0.49251
H          2.11184       -2.61813       -0.48648
O          3.72136        0.65763       -0.33294
H          4.07994       -0.21665       -0.56509
O         -2.08427       -1.22519        1.49382
H         -2.26685       -1.80083        0.72351
N         -2.47726       -0.99991       -1.17836
H         -1.60404       -0.87849       -1.69380
H         -3.21314       -1.04132       -1.88119
H         -3.71942        0.13257        0.02597
H         -2.08746        0.81020        1.62937
