20
id_2214_ca.log	Energy: -159041.3403770
C         -1.11086        1.58338       -0.52109
H         -1.62175        2.50642       -0.23460
H         -1.77271        1.04632       -1.20956
H         -0.20490        1.85968       -1.06895
C         -0.78368        0.76542        0.72630
H         -1.69179        0.59263        1.31566
H         -0.10312        1.33092        1.37058
C         -0.12142       -0.58344        0.45677
H          0.14579       -1.05009        1.40825
C          1.09726       -0.54166       -0.45749
H          1.48387       -1.56158       -0.56422
H          0.79171       -0.20813       -1.45664
C          2.18843        0.37092        0.09279
H          1.86903        1.41745        0.10110
H          3.08871        0.29988       -0.52271
H          2.45442        0.08840        1.11680
N         -1.13193       -1.51970       -0.15818
H         -1.43980       -1.18424       -1.07916
H         -1.96375       -1.61219        0.43649
H         -0.73063       -2.45528       -0.28943
