21
id_2031_ca.log	Energy: -229991.9498933
C          2.45093        0.78507        0.98169
H          2.70147        1.61875        0.32638
H          3.22509        0.64263        1.73362
H          1.48564        0.94800        1.45775
N          2.37334       -0.44903        0.15250
H          2.10337       -1.24198        0.74706
C          1.41409       -0.35605       -1.00506
H          1.75182        0.48542       -1.61219
H          1.53340       -1.28259       -1.56880
C          0.00165       -0.17247       -0.52557
C         -0.71208       -1.26468       -0.02400
H         -0.24528       -2.24678       -0.00299
C         -2.01406       -1.09757        0.43883
H         -2.56443       -1.94981        0.82467
C         -2.61211        0.16178        0.39767
H         -3.62952        0.29072        0.75365
C         -1.90578        1.25309       -0.10397
H         -2.36968        2.23368       -0.13924
C         -0.60055        1.08657       -0.56219
H         -0.04390        1.93416       -0.95379
H          3.30612       -0.66331       -0.21812
