23
id_2422_ca.log	Energy: -324363.5998187
C          0.81824        2.22633        0.96579
H         -0.15911        2.57563        1.31247
H          1.44849        3.07793        0.71063
H          1.29431        1.62693        1.74707
O          0.66954        1.45631       -0.24065
C         -0.11104        0.32629       -0.06757
C          0.47641       -0.90719        0.21105
C         -0.33662       -2.03227        0.34652
H          0.11751       -2.99522        0.55819
C         -1.71871       -1.91196        0.21304
H         -2.34949       -2.78762        0.32455
C         -2.30151       -0.68266       -0.08066
H         -3.37443       -0.57893       -0.20568
C         -1.49381        0.44211       -0.23024
O         -2.05628        1.64750       -0.53145
H         -1.33797        2.27537       -0.73073
C          1.96907       -0.99921        0.36092
H          2.28853       -2.03157        0.49611
H          2.33946       -0.39846        1.19356
N          2.65334       -0.47566       -0.86617
H          2.37866        0.50538       -1.01744
H          2.38900       -1.01797       -1.69631
H          3.67336       -0.52098       -0.76552
