27
id_2094_ca.log	Energy: -372945.3632563
C         -0.66749       -1.92929        0.05679
H         -0.30994       -2.95486        0.07796
C         -2.03673       -1.67992        0.02553
H         -2.75771       -2.49283        0.02345
C         -2.48948       -0.36766       -0.01216
C         -1.57131        0.68620       -0.01846
C         -0.19789        0.44556        0.02590
C          0.25490       -0.88253        0.06026
C          1.73504       -1.19720        0.12014
H          1.95209       -2.08912       -0.47694
H          2.02523       -1.42225        1.15634
C          2.56779       -0.02116       -0.36386
C          2.17835        1.25316        0.36512
H          2.26252        1.07620        1.44472
H          2.85809        2.06962        0.10176
C          0.74365        1.62893       -0.00278
H          0.72787        2.07172       -1.00715
H          0.38146        2.40561        0.67757
N          4.01703       -0.31974       -0.11782
H          4.19572       -0.44917        0.88632
H          4.61355        0.44881       -0.44628
O         -2.01171        1.98372       -0.07213
H         -2.98484        1.97350       -0.08312
O         -3.81260       -0.00235       -0.05063
H         -4.36931       -0.79822       -0.03985
H          2.47000        0.10882       -1.44489
H          4.30947       -1.17703       -0.60201
