30
id_2384_cb.log	Energy: -327589.9348973
C         -1.34667        1.34367        0.08904
H         -0.94509        2.35195        0.16335
C         -2.72714        1.16568        0.07327
H         -3.39074        2.02481        0.13265
C         -3.27663       -0.11868       -0.01774
C         -2.40127       -1.21196       -0.08968
H         -2.81200       -2.21630       -0.15840
C         -1.02497       -1.01853       -0.07276
H         -0.37301       -1.88783       -0.12746
C         -0.46507        0.26234        0.01612
C          1.03440        0.46747        0.03470
H          1.22080        1.54867        0.11554
C          1.69604       -0.20672        1.24808
H          1.23490        0.16288        2.17147
H          1.50170       -1.28787        1.20320
C          3.20713        0.03221        1.26906
H          3.39880        1.10730        1.39176
H          3.65634       -0.47219        2.13185
C          3.85926       -0.44730       -0.02897
H          4.93606       -0.24544       -0.01225
H          3.73800       -1.53654       -0.11021
C          3.21119        0.21918       -1.24375
H          3.66313       -0.15191       -2.17036
H          3.40285        1.30059       -1.20526
C          1.70005       -0.01963       -1.26316
H          1.50474       -1.09534       -1.37933
H          1.24173        0.48304       -2.12293
N         -4.66094       -0.30340       -0.10077
H         -4.96243       -1.20762        0.24811
H         -5.18715        0.43929        0.34832
