11
id_2080_ca.log	Energy: -145012.9137004
C         -2.63809        0.18880       -0.00001
H         -2.82496        1.26666       -0.00057
H         -3.11232       -0.23977        0.88740
H         -3.11245       -0.24071       -0.88690
C         -1.19892       -0.07809        0.00001
C         -0.00859       -0.29655        0.00001
C          1.43355       -0.56086        0.00000
H          1.70153       -1.14575       -0.88734
H          1.70153       -1.14578        0.88731
O          2.12969        0.68646        0.00002
H          3.08147        0.49389       -0.00017
