41
id_2116_cb.log	Energy: -553673.3686236
C         -5.40519       -1.88723        0.36042
H         -6.13662       -2.62111        0.68479
C         -4.50190       -2.19960       -0.65276
H         -4.52475       -3.17911       -1.12077
C         -3.56529       -1.25326       -1.06783
H         -2.85872       -1.49663       -1.85799
C         -3.51983        0.01214       -0.47910
C         -4.43160        0.31554        0.53714
H         -4.40817        1.29999        0.99803
C         -5.36801       -0.62572        0.95549
H         -6.07241       -0.37498        1.74291
C         -2.50089        1.03507       -0.92064
H         -2.07996        0.73304       -1.89626
H         -2.99458        2.00218       -1.06548
N         -1.42745        1.23704        0.05971
C         -0.56932        2.33175       -0.40119
H         -0.15071        2.11326       -1.40117
H         -1.16998        3.24295       -0.48038
C          0.57800        2.55855        0.57130
H          1.22182        3.36734        0.23034
H          0.18464        2.81192        1.56055
N          1.37364        1.33697        0.70912
C          0.53895        0.21242        1.14850
H          0.16639        0.43823        2.15236
H          1.12488       -0.70294        1.19652
C         -0.62419        0.01968        0.18360
H         -0.21800       -0.28491       -0.80083
H         -1.25550       -0.79443        0.55082
C          2.43934        1.17852       -0.12445
O          2.79420        2.05982       -0.91632
C          3.24905       -0.08064       -0.02405
C          3.60184       -0.64618        1.20478
H          3.24117       -0.20525        2.12967
C          4.43053       -1.76409        1.24321
H          4.71057       -2.19401        2.19959
C          4.90145       -2.32657        0.05759
H          5.54257       -3.20203        0.08978
C          4.55501       -1.76108       -1.16868
H          4.92366       -2.19483       -2.09275
C          3.74155       -0.63275       -1.20886
H          3.47978       -0.17453       -2.15776
