15
id_2078_ca.log	Energy: -1129116.3983172
C         -0.24679       -2.24642        0.01128
H         -0.64161       -3.25651        0.02266
C          1.12542       -2.02952        0.01875
H          1.80787       -2.87297        0.03542
C          1.63516       -0.73373        0.00600
C          0.76601        0.35784       -0.01668
C         -0.61320        0.14827       -0.02747
C         -1.10508       -1.15376       -0.01086
Cl        -2.82697       -1.40694       -0.02020
C         -1.55436        1.31937       -0.08600
O         -1.93186        1.81511       -1.12404
O         -1.91599        1.72954        1.12561
H         -2.53181        2.48721        1.04767
Cl         1.36325        1.98440       -0.02760
Cl         3.35229       -0.50024        0.01906
