21
id_2262_cb.log	Energy: -253611.9383071
C          2.58709        0.35394        0.16835
H          3.61456        0.67117        0.32022
C          2.31285       -0.98306       -0.12725
H          3.12828       -1.69623       -0.20315
C          0.99744       -1.40469       -0.33117
H          0.78111       -2.44540       -0.56132
C         -0.03025       -0.47109       -0.24364
C          0.24270        0.86763        0.05458
C          1.55269        1.28758        0.26437
H          1.77192        2.32754        0.49223
C         -1.04084        1.66555        0.11116
H         -1.32494        1.85067        1.15476
H         -0.95636        2.64051       -0.37717
C         -2.05194        0.73300       -0.59022
H         -2.04854        0.94625       -1.66369
H         -3.07523        0.84856       -0.22428
C         -1.52641       -0.69716       -0.36247
N         -2.12410       -1.29128        0.84750
H         -1.87422       -0.68979        1.63530
H         -1.63589       -2.16861        1.03245
H         -1.77195       -1.35588       -1.20020
