22
id_2091_ca.log	Energy: -513817.8437098
C         -3.48373       -1.18309        1.01296
H         -2.78030       -1.54283        1.76884
H         -4.32391       -1.87931        0.96049
H         -3.86320       -0.20668        1.32745
C         -2.80440       -1.09036       -0.35905
H         -3.51663       -0.73946       -1.11212
H         -2.44014       -2.07243       -0.66836
C         -1.63792       -0.15505       -0.31206
C         -0.33051       -0.55334       -0.07245
H         -0.11555       -1.60957        0.04289
C          0.68448        0.39603        0.01878
C          0.38041        1.75364       -0.14012
H          1.14350        2.52174       -0.09827
C         -0.92460        2.11444       -0.39051
H         -1.25022        3.13533       -0.54133
N         -1.87338        1.16495       -0.46314
C          2.09938       -0.03476        0.25637
S          2.72457       -1.37249       -0.51841
N          2.78430        0.74219        1.08079
H          3.75913        0.53952        1.27634
H          2.35445        1.51846        1.57428
H         -2.83542        1.46018       -0.64271
