60
id_2111_cb.log	Energy: -1967497.1714032
C          0.42028       -1.77020       -0.43241
H          0.42049       -1.70689       -1.51701
C         -0.72313       -1.41990        0.28143
H         -1.61941       -1.08976       -0.23638
C         -0.70729       -1.52379        1.67026
C          0.42055       -1.95250        2.36377
H          0.40824       -2.02490        3.44642
C          1.55899       -2.31133        1.64393
H          2.44023       -2.67117        2.16429
C          1.54636       -2.22635        0.25364
S          2.98717       -2.72475       -0.69438
O          3.73384       -3.68863        0.14452
O          2.46421       -3.29168       -1.95673
N          3.78417       -1.39690       -1.09166
C          4.28949       -0.64296       -0.07243
O          4.38558       -0.99221        1.12250
N          4.74563        0.61271       -0.46797
C          4.10659        1.22870       -1.63796
H          4.70542        2.10123       -1.91737
H          4.11211        0.53295       -2.47390
C          2.67335        1.64155       -1.29533
H          2.11953        0.72855       -1.04717
H          2.19702        2.10654       -2.16460
C          2.69500        2.60197       -0.10730
H          3.13484        3.55457       -0.42330
C          3.49404        2.06224        1.08011
H          3.59799        2.84551        1.83970
H          2.97886        1.21068        1.53915
C          4.87517        1.59391        0.61489
H          5.42912        1.15868        1.44503
H          5.45384        2.43682        0.22517
N          1.29433        2.96396        0.35695
H          1.41036        3.42216        1.27256
C          0.39475        1.77801        0.57834
H          0.19347        1.34388       -0.40364
H          0.92978        1.04848        1.18928
C         -0.89279        2.22836        1.24426
H         -0.68163        2.69676        2.21280
H         -1.50377        1.34337        1.44015
C         -1.62630        3.23874        0.36461
H         -2.54099        3.59396        0.84981
C         -0.70632        4.41435        0.06146
H         -1.18778        5.10084       -0.64089
H         -0.52512        4.96110        0.99344
C          0.61960        3.96480       -0.54053
H          1.30448        4.80620       -0.65407
H          0.48067        3.47990       -1.50892
O         -1.95069        2.66720       -0.91624
C         -2.72979        1.55015       -0.98063
C         -2.59942        0.77456       -2.13747
H         -1.89002        1.07536       -2.90208
C         -3.36521       -0.37081       -2.29333
H         -3.26196       -0.97965       -3.18591
C         -4.26240       -0.76005       -1.29786
C         -4.39504        0.02368       -0.15302
C         -3.63610        1.18127        0.01326
H         -3.76437        1.77074        0.91473
Cl        -5.51601       -0.40969        1.10250
Cl        -5.18879       -2.21610       -1.51177
Cl        -2.15819       -1.13257        2.56156
