16
id_2317_cb.log	Energy: -309091.0768103
C          2.67288       -0.16779       -0.00000
H          3.74134       -0.35903       -0.00000
C          1.76072       -1.19235       -0.00000
H          2.07334       -2.23340       -0.00000
C          0.37225       -0.89961       -0.00000
C          0.00000        0.47194        0.00000
C         -1.42056        0.82864        0.00000
C         -2.29408       -0.28228       -0.00000
H         -3.36698       -0.11090       -0.00000
C         -1.80058       -1.58666       -0.00000
H         -2.51329       -2.41055       -0.00000
N         -0.51750       -1.93683       -0.00000
O         -1.81790        2.04255        0.00000
N          0.91561        1.47699        0.00000
C          2.19592        1.16204        0.00000
H          2.90265        1.98875        0.00000
