33
id_2181_ca.log	Energy: -731451.6005776
C         -4.60373        0.90417        1.22233
H         -4.47266        0.22936        2.07563
H         -5.67730        1.07899        1.09496
H         -4.13366        1.86413        1.46409
C         -4.03836        0.30501       -0.06825
C         -4.76740       -1.01876       -0.35331
H         -5.84620       -0.83778       -0.42148
H         -4.59088       -1.74222        0.45075
H         -4.43911       -1.46623       -1.29703
C         -4.30311        1.29058       -1.21887
H         -3.78411        2.24033       -1.04637
H         -5.37771        1.49463       -1.28775
H         -3.97402        0.88882       -2.18261
C         -2.53629        0.03703        0.02803
C         -1.85810       -0.49761       -1.08124
H         -2.40216       -0.72124       -1.99443
C         -0.49351       -0.75459       -1.04467
H          0.01560       -1.16836       -1.90999
C          0.20536       -0.47898        0.13037
C         -0.42903        0.04931        1.24958
H          0.12872        0.25794        2.15792
C         -1.79822        0.30200        1.18869
H         -2.28237        0.71045        2.06838
S          1.95271       -0.75643        0.18691
O          2.34708       -1.00929        1.58174
O          2.31017       -1.74999       -0.83719
C          2.62450        0.83771       -0.30160
H          2.28791        1.04391       -1.32381
H          2.20883        1.59469        0.37080
C          4.13368        0.84825       -0.24006
O          4.83392       -0.12225       -0.05503
O          4.59710        2.08366       -0.42568
H          5.57481        2.07366       -0.38625
