44
id_2121_ca.log	Energy: -658894.3369758
C          7.54004       -1.13943       -0.98618
H          7.31637       -0.96600       -2.04293
H          7.20182       -2.14300       -0.71194
H          8.62434       -1.09090       -0.84992
C          6.88233       -0.09277       -0.11791
H          7.20296        0.91680       -0.38739
H          7.08684       -0.25881        0.94305
O          5.45905       -0.19656       -0.33391
C          4.69075        0.66395        0.35655
O          5.16817        1.51634        1.10789
N          3.36236        0.47064        0.16043
C          2.86354       -0.32524       -0.96885
H          2.80078        0.31942       -1.85787
H          3.56873       -1.12712       -1.17748
C          1.49209       -0.91152       -0.65792
H          1.13023       -1.44191       -1.54469
H          1.58110       -1.64062        0.15694
C          0.50723        0.18813       -0.25201
H          0.39736        0.89404       -1.08769
C          1.07864        0.95180        0.95299
H          1.15326        0.26889        1.80831
H          0.41369        1.77476        1.23451
C          2.45219        1.52210        0.62685
H          2.88630        1.98711        1.51099
H          2.36198        2.28969       -0.15624
C         -0.84333       -0.36755        0.06602
C         -1.21252       -1.46458        0.79381
H         -0.56986       -2.14422        1.33472
C         -2.64743       -1.55005        0.75719
O         -3.43331       -2.33984        1.32022
N         -3.05904       -0.49434       -0.05133
N         -1.96251        0.28655       -0.36881
H         -1.98731        0.73051       -1.28656
C         -4.36515        0.03255       -0.18885
C         -5.44239       -0.84421       -0.34739
H         -5.27100       -1.91397       -0.37467
C         -6.72814       -0.32596       -0.48323
H         -7.56434       -1.00840       -0.60270
C         -6.94216        1.05292       -0.48523
H         -7.94623        1.44971       -0.59958
C         -5.85704        1.91779       -0.34635
H         -6.01106        2.99272       -0.34893
C         -4.56645        1.41559       -0.19102
H         -3.72610        2.09081       -0.06646
