34
id_2341_ca.log	Energy: -791819.4329863
C          0.34518        3.10425       -0.55976
H          0.57814        2.28746       -1.25009
H          0.90370        2.93559        0.36874
H          0.70576        4.03443       -1.00759
C         -1.15284        3.17772       -0.27999
H         -1.71361        3.28493       -1.21491
H         -1.38249        4.05370        0.33649
C         -1.66178        1.96429        0.46843
H         -2.73719        2.02797        0.66230
H         -1.12990        1.84057        1.41725
O         -1.41214        0.79499       -0.35735
P         -1.59137       -0.66205        0.31288
O         -0.94107       -0.78249        1.65592
C         -3.34456       -1.02741        0.24833
H         -3.70589       -0.94959       -0.78055
H         -3.86889       -0.29596        0.87108
H         -3.52671       -2.03242        0.63525
S         -0.70195       -1.90793       -1.12314
C          0.98220       -1.89500       -0.40712
H          0.90116       -2.18206        0.64165
H          1.53831       -2.66776       -0.94361
C          1.63303       -0.53289       -0.59340
H          1.03872        0.27483       -0.15899
H          1.79080       -0.32864       -1.65444
N          2.97126       -0.45034        0.07995
C          2.84810       -0.44054        1.56787
H          3.84683       -0.33590        1.99000
H          2.39742       -1.37211        1.90453
H          2.22319        0.41113        1.84198
C          3.70583        0.76187       -0.38778
H          3.83846        0.69390       -1.46683
H          4.67090        0.79474        0.11615
H          3.10769        1.63678       -0.12796
H          3.52135       -1.27531       -0.19114
