24
id_2224_ca.log	Energy: -207609.1734696
C          2.63691       -0.59143       -0.05106
H          3.30094       -0.05544       -0.73690
H          2.80104       -1.66558       -0.18687
H          2.92783       -0.33201        0.97379
C          1.17925       -0.21762       -0.29840
C          0.94906        1.28713       -0.12617
H          1.25004        1.57242        0.89259
H          1.59270        1.84106       -0.81900
C         -0.51645        1.66527       -0.34415
H         -0.79463        1.46368       -1.38780
H         -0.66472        2.73819       -0.18808
C         -1.43035        0.88929        0.60803
H         -2.48571        1.11829        0.42299
H         -1.21248        1.18620        1.64032
C         -1.20812       -0.61852        0.53633
C          0.26398       -1.00127        0.65076
H          0.56469       -0.78832        1.68463
H          0.37955       -2.08150        0.49862
N         -1.76239       -1.14650       -0.76560
H         -1.29838       -0.73306       -1.58320
H         -2.76528       -0.94125       -0.84501
H          0.92997       -0.48378       -1.33711
H         -1.79274       -1.12632        1.30516
H         -1.64176       -2.16429       -0.82691
