18
id_2203_cb.log	Energy: -520259.6975232
C         -1.29231       -1.58229        0.03322
H         -1.99140       -2.41044        0.05159
C          0.07796       -1.80473        0.03799
H          0.45663       -2.82154        0.06660
C          0.98614       -0.74148        0.01391
C          0.46110        0.55219       -0.01967
C         -0.89965        0.82178       -0.02228
H         -1.27317        1.83801       -0.05887
C         -1.75168       -0.26885        0.00253
N         -3.19525       -0.02052       -0.01085
O         -3.94255       -0.98513        0.01518
O         -3.58080        1.13707       -0.04665
N          1.36371        1.70614       -0.08364
O          0.92629        2.79754        0.24454
O          2.50362        1.51783       -0.47406
C          2.47532       -1.07396        0.08412
O          2.97239       -1.57873       -0.94922
O          3.03198       -0.86623        1.18812
