22
id_2251_cb.log	Energy: -324080.5585816
C          1.71542        1.78398        0.07741
H          2.14979        2.77047        0.20898
C          0.36965        1.65704       -0.25650
H         -0.24905        2.54130       -0.38691
C         -0.18951        0.38796       -0.43368
C          0.60716       -0.74346       -0.27244
H          0.18781       -1.73533       -0.41889
C          1.95519       -0.60562        0.06215
C          2.51764        0.65750        0.23949
H          3.56885        0.74122        0.49575
O          2.77410       -1.69277        0.22659
H          2.26164       -2.50362        0.07152
C         -1.67146        0.25892       -0.74944
C         -2.51734        0.53199        0.50001
H         -3.56879        0.55975        0.20114
H         -2.25684        1.51173        0.91980
N         -2.33577       -0.58936        1.42567
H         -3.04729       -0.54463        2.15099
H         -1.43848       -0.48525        1.89796
O         -2.00817       -1.02469       -1.24680
H         -2.17358       -1.55125       -0.43876
H         -1.93162        0.99089       -1.52161
