43
id_2124_ca.log	Energy: -860878.9365690
C          6.53057        2.65544       -0.05743
H          7.47238        2.16609       -0.33066
H          6.66427        3.12776        0.91875
H          6.33697        3.43220       -0.80307
C          5.41374        1.64963       -0.02719
C          4.89463        1.18905        1.18816
H          5.29196        1.57621        2.12217
C          3.87828        0.23822        1.22043
H          3.48153       -0.12034        2.16527
C          3.38692       -0.24615        0.01077
C          3.87724        0.19267       -1.21995
H          3.47781       -0.20177       -2.14955
C          4.89072        1.14211       -1.22588
H          5.28655        1.49494       -2.17448
S          2.09613       -1.44740        0.03032
O          2.05204       -2.09970        1.33941
O          2.18213       -2.29842       -1.15447
N          0.75322       -0.44119       -0.15943
H          0.89084        0.50048        0.21380
C         -0.52450       -1.01746       -0.04313
O         -0.68351       -2.22868       -0.16535
N         -1.49385       -0.11087        0.19938
H         -1.28225        0.88759        0.13669
N         -2.83881       -0.48029        0.15768
C         -3.59638        0.17254        1.23858
H         -3.35250       -0.27916        2.20279
H         -3.33842        1.24559        1.27666
C         -5.05473       -0.01186        0.81185
C         -5.93843        1.21474        1.09778
H         -6.98226        0.90064        1.21525
H         -5.64230        1.73728        2.01422
C         -5.80511        2.07504       -0.16469
H         -6.59254        2.82963       -0.25529
H         -4.84012        2.59891       -0.16267
C         -5.83603        1.03484       -1.29116
H         -5.45953        1.41633       -2.24679
H         -6.86818        0.70037       -1.44880
C         -4.98813       -0.13002       -0.75092
C         -3.49741       -0.00142       -1.07234
H         -3.22865        1.05491       -1.24700
H         -3.17004       -0.59243       -1.93127
H         -5.46059       -0.92111        1.26265
H         -5.36039       -1.09895       -1.09334
