39
id_210_ca.log	Energy: -747338.9400765
C          5.00594       -1.91030       -0.74056
H          5.59269       -2.80538       -0.53694
H          5.44848       -1.04318       -0.24892
H          4.92505       -1.74214       -1.81396
N          3.63741       -2.10404       -0.18374
C          3.69799       -2.36802        1.28209
H          2.71248       -2.66540        1.63550
H          4.02570       -1.45151        1.77487
H          4.41333       -3.17141        1.45422
C          2.75819       -0.93553       -0.52168
H          3.21636       -0.06387       -0.04570
H          2.81549       -0.81656       -1.60684
C          1.31983       -1.14851       -0.07544
H          0.97677       -2.13748       -0.40335
H          1.24969       -1.10724        1.01509
C          0.41450       -0.07097       -0.68433
C         -1.06610       -0.30979       -0.43192
C         -1.99417        0.39001       -1.21129
H         -1.63817        1.06754       -1.98389
C         -3.36169        0.23690       -1.01926
H         -4.07395        0.78004       -1.63112
C         -3.80321       -0.63245       -0.02633
C         -2.90968       -1.33996        0.76535
H         -3.27155       -2.01423        1.53423
C         -1.54088       -1.17155        0.55702
H         -0.85091       -1.73178        1.17971
Cl        -5.52462       -0.83903        0.22554
C          0.80680        1.31007       -0.18069
C          1.22822        2.30063       -1.06737
H          1.28088        2.08719       -2.13043
C          1.57530        3.55178       -0.56577
H          1.90569        4.34075       -1.23424
C          1.49158        3.76792        0.80460
H          1.75007        4.72376        1.24642
C          1.06400        2.71619        1.61026
H          0.98848        2.85038        2.68660
N          0.72518        1.51170        1.14232
H          0.56426       -0.07462       -1.77061
H          3.22982       -2.93359       -0.63298
