27
id_2266_ca.log	Energy: -419992.9061859
C          4.20279       -0.68111       -0.26694
H          4.91503       -0.00850       -0.74043
H          4.44968       -0.82213        0.78684
H          4.18817       -1.64516       -0.77812
O          2.92556       -0.03836       -0.39302
C          1.89644       -0.69246        0.15032
O          2.01055       -1.77942        0.68084
C          0.62369        0.08437        0.05265
C          0.71269        1.45634        0.05735
H          1.67832        1.94960        0.09240
C         -0.46386        2.22521        0.04074
C         -1.70473        1.66280        0.01068
H         -2.60024        2.27861        0.00304
C         -1.82296        0.24879       -0.01465
C         -0.65302       -0.56828        0.00582
C         -0.82013       -1.97873       -0.05551
H          0.05140       -2.61950       -0.06308
C         -2.07610       -2.53120       -0.11243
H         -2.18288       -3.61015       -0.16229
C         -3.23283       -1.71742       -0.11077
H         -4.21526       -2.17616       -0.15199
C         -3.10688       -0.35346       -0.06679
H         -3.98075        0.29135       -0.07642
N         -0.32362        3.68515        0.06286
H         -1.24066        4.15053        0.05559
H          0.20333        4.02524       -0.75350
H          0.17982        4.00341        0.90254
