28
id_2180_cb.log	Energy: -628155.6248187
C          0.28246        1.47186       -0.00001
H         -0.50972        2.21934       -0.00002
C          1.60350        1.89795       -0.00002
H          1.83223        2.96196       -0.00003
C          2.71197        1.00057       -0.00001
C          2.33052       -0.37039        0.00001
C          1.00637       -0.80190        0.00001
H          0.79979       -1.87057        0.00002
C         -0.05253        0.10829       -0.00000
C         -1.49197       -0.36102        0.00000
H         -1.48177       -1.46196        0.00001
C         -2.24923        0.09414       -1.25912
H         -2.24341        1.19351       -1.29863
H         -1.72190       -0.26049       -2.15355
C         -3.69720       -0.40142       -1.26011
H         -4.21632       -0.04448       -2.15750
H         -3.70171       -1.50027       -1.30406
C         -4.43698        0.05211       -0.00000
H         -4.50799        1.14960       -0.00001
H         -5.46280       -0.33499        0.00000
C         -3.69720       -0.40140        1.26011
H         -3.70171       -1.50024        1.30409
H         -4.21632       -0.04443        2.15750
C         -2.24923        0.09417        1.25912
H         -1.72190       -0.26045        2.15356
H         -2.24341        1.19354        1.29860
Cl         3.59906       -1.59326        0.00002
O          3.94376        1.41844       -0.00001
