57
id_2097_cb.log	Energy: -1465261.6349963
C          1.90394       -1.44823        2.58379
H          2.42808       -0.49174        2.70391
H          2.62654       -2.23827        2.81740
H          1.09268       -1.49123        3.31498
C          1.36537       -1.60016        1.18891
C          0.00794       -1.76199        0.93668
H         -0.67493       -1.78448        1.78485
C         -0.50062       -1.89875       -0.36425
C          0.40046       -1.89015       -1.42392
H          0.03606       -2.00180       -2.44282
C          1.77524       -1.73429       -1.20779
H          2.44929       -1.71982       -2.05718
C          2.24991       -1.57618        0.09105
O          3.56913       -1.39505        0.41007
C          4.50102       -1.34490       -0.65534
H          4.48909       -2.28674       -1.21893
H          4.25277       -0.52891       -1.34672
C          5.91866       -1.12410       -0.12289
O          6.79608       -1.00285       -1.02340
O          6.11737       -1.09758        1.11657
C         -1.97798       -2.12542       -0.59757
H         -2.27364       -3.01707       -0.03492
H         -2.14963       -2.35089       -1.66386
N         -2.89379       -1.04354       -0.16300
C         -4.22753       -1.66179       -0.04660
H         -4.44421       -2.24447       -0.96144
H         -4.19761       -2.37485        0.78279
C         -5.35434       -0.68485        0.16786
C         -6.57843       -1.14521        0.66745
H         -6.68222       -2.19525        0.93347
C         -7.65375       -0.27607        0.82505
H         -8.59796       -0.64476        1.21542
C         -7.51202        1.07134        0.48043
H         -8.34598        1.75724        0.59869
C         -6.29603        1.53213       -0.01550
H         -6.17790        2.57958       -0.28511
C         -5.21206        0.66086       -0.17562
C         -3.88467        1.16670       -0.67628
H         -3.38916        1.71326        0.13565
H         -4.03024        1.87957       -1.49552
C         -2.97670        0.03105       -1.16638
C         -1.61428        0.62196       -1.51749
O         -1.22645        0.67956       -2.68222
N         -0.92427        1.12267       -0.45415
H         -1.35460        0.92414        0.44560
C          0.43709        1.45084       -0.39866
C          1.24277        1.60926       -1.53296
H          0.80468        1.52536       -2.51693
C          2.60921        1.84202       -1.41125
H          3.22153        1.93993       -2.30197
C          3.18043        1.93505       -0.14922
C          2.40330        1.84170        0.99979
H          2.84417        1.93934        1.98672
C          1.04208        1.61156        0.86059
Cl         0.07651        1.51440        2.31216
Cl         4.90151        2.18214        0.00750
H         -3.36973       -0.37019       -2.11569
