20
id_2428_cb.log	Energy: -360071.4538334
C         -2.07827        2.92474        0.00000
H         -2.87077        3.66763        0.00000
C         -0.72340        3.34761        0.00000
H         -0.49377        4.40917        0.00000
C          0.29139        2.42157       -0.00000
H          1.33205        2.73687       -0.00000
C          0.00000        1.02885        0.00000
C          1.02942        0.04990       -0.00000
H          2.06509        0.37959       -0.00000
C          0.73444       -1.29449       -0.00000
C         -0.62576       -1.71080        0.00000
H         -0.84920       -2.77282        0.00000
C         -1.64248       -0.78935        0.00000
H         -2.68099       -1.11186        0.00000
C         -1.35989        0.60513        0.00000
C         -2.38908        1.58608        0.00000
H         -3.42529        1.25640        0.00000
C          1.84923       -2.32838       -0.00000
O          1.51237       -3.54554       -0.00000
O          3.03880       -1.90572       -0.00000
