14
id_281_ca.log	Energy: -297321.4903800
C         -0.82463        2.16801        0.00002
H         -0.28415        2.52002        0.88343
H         -1.82451        2.60538        0.00044
H         -0.28490        2.52004       -0.88384
C         -0.92978        0.68265        0.00002
C          0.05467       -0.26236        0.00004
O         -0.53852       -1.50022        0.00000
C         -1.85002       -1.24037       -0.00001
H         -2.52080       -2.08810       -0.00004
N         -2.15087        0.02242       -0.00004
C          1.51051       -0.22390        0.00001
O          2.22148       -1.21325        0.00002
O          1.97393        1.03020       -0.00004
H          2.95092        1.00773       -0.00007
