32
id_272_cb.log	Energy: -445214.4111189
C         -4.91445       -0.88482       -0.23902
H         -4.75326       -1.79791       -0.83121
H         -5.97156       -0.61624       -0.29428
H         -4.68468       -1.11278        0.80567
N         -4.10194        0.24219       -0.69663
H         -4.44956        0.54065       -1.60452
C         -2.69423       -0.12087       -0.85092
H         -2.54847       -1.07362       -1.38402
H         -2.19815        0.67095       -1.42207
C         -2.02548       -0.21291        0.52634
C         -0.52741       -0.33459        0.38566
C          0.08066       -1.58005        0.38372
H         -0.51588       -2.47431        0.54236
C          1.46114       -1.70193        0.18197
H          1.91855       -2.68439        0.18554
C          2.23619       -0.56786       -0.01007
C          1.62274        0.70618       -0.00313
C          0.25404        0.81447        0.18734
H         -0.22497        1.78690        0.19533
O          2.47013        1.75951       -0.19242
C          1.89008        3.05609       -0.18463
H          1.15565        3.16348       -0.98987
H          2.71231        3.75335       -0.34415
H          1.41098        3.26650        0.77741
O          3.58702       -0.56383       -0.20690
C          4.23415       -1.82809       -0.21758
H          5.29120       -1.62278       -0.38560
H          3.84951       -2.45974       -1.02542
H          4.10745       -2.34281        0.74077
O         -2.36303        0.94784        1.27119
H         -3.24679        1.19520        0.93238
H         -2.39629       -1.10964        1.04502
