14
id_2078_cb.log	Energy: -1128840.1047873
C         -0.32630       -2.21507       -0.00001
H         -0.75016       -3.21366       -0.00003
C          1.05213       -2.03983       -0.00002
H          1.71227       -2.90081       -0.00003
C          1.59027       -0.75612       -0.00000
C          0.74698        0.35677        0.00001
C         -0.63982        0.19921        0.00001
C         -1.15126       -1.09614        0.00000
Cl        -2.88362       -1.32247        0.00003
C         -1.56547        1.41545       -0.00001
O         -1.90211        1.85377       -1.12568
O         -1.90203        1.85388        1.12565
Cl         1.40346        1.96696       -0.00001
Cl         3.31733       -0.56993        0.00001
