26
id_206_cb.log	Energy: -312990.5965836
C          2.79824        1.16678        0.54305
H          3.23774        2.06322        0.96685
C          1.42023        1.01129        0.45572
H          0.75616        1.79321        0.81790
C          0.90019       -0.15946       -0.10082
C          1.81436       -1.11805       -0.53568
H          1.44616       -2.04392       -0.97408
N          3.14403       -0.99169       -0.45577
C          3.61491        0.14081        0.07691
H          4.69621        0.23400        0.13494
C         -0.58668       -0.39513       -0.21735
C         -1.24757       -0.47677        1.16685
H         -1.06361        0.46804        1.69789
H         -0.77731       -1.27604        1.75118
C         -2.75347       -0.70778        1.03555
H         -3.22639       -0.70917        2.02326
H         -2.92760       -1.69828        0.59330
C         -3.37550        0.35958        0.13538
H         -3.29407        1.34162        0.62132
H         -4.44140        0.16260       -0.02540
C         -2.64683        0.41025       -1.20567
H         -3.05854        1.20142       -1.83914
H         -2.79563       -0.53887       -1.73640
N         -1.19722        0.62683       -1.08921
H         -1.06891        1.52701       -0.62021
H         -0.73773       -1.36000       -0.72007
