34
id_2345_ca.log	Energy: -375807.4762216
C         -5.91662       -0.87978        0.25710
H         -6.04399       -1.21743       -0.77720
H         -6.57618       -0.01861        0.40981
H         -6.25516       -1.68419        0.91687
C         -4.46336       -0.50709        0.53092
H         -3.82421       -1.38721        0.39811
H         -4.34987       -0.19021        1.57553
C         -3.97888        0.61518       -0.38443
H         -4.61305        1.50018       -0.25259
H         -4.06999        0.30940       -1.43425
C         -2.54732        1.03300       -0.11596
H         -2.41878        1.33438        0.93196
H         -2.25308        1.87201       -0.75782
O         -1.70736       -0.09057       -0.39163
C         -0.36654        0.05980       -0.22212
C          0.41560       -1.06562       -0.51649
H         -0.07952       -1.97193       -0.85003
C          1.79275       -1.00696       -0.38806
H          2.38491       -1.88754       -0.62755
C          2.42060        0.16864        0.04654
C          1.63221        1.27576        0.34533
H          2.10506        2.19354        0.68456
C          0.24403        1.23744        0.21171
H         -0.33996        2.11897        0.44687
C          3.92155        0.25349        0.17045
C          4.67384       -0.07764       -1.10793
H          4.37131        0.62182       -1.89002
H          4.44747       -1.09459       -1.44288
H          5.75322        0.01297       -0.95530
N          4.39056       -0.69700        1.24839
H          4.19276       -1.67229        0.99067
H          3.92219       -0.50592        2.14144
H          4.20063        1.24523        0.53023
H          5.40403       -0.61239        1.39349
