19
id_2246_cb.log	Energy: -333340.8274746
C         -2.27001        1.89238       -0.00691
H         -2.90804        1.87574        0.88541
H         -2.93224        1.83896       -0.87907
H         -1.74651        2.85019       -0.03113
C         -1.29147        0.75252       -0.00023
C          0.07228        0.97039        0.00093
H          0.45598        1.98454        0.00168
C          0.96196       -0.10821       -0.00007
C          0.50540       -1.42710       -0.00220
H          1.20925       -2.25051       -0.00015
C         -0.85318       -1.65911       -0.00193
H         -1.23421       -2.67560       -0.00022
C         -1.77023       -0.58633       -0.00135
N         -3.10795       -0.83347       -0.04890
H         -3.74963       -0.10016        0.22373
H         -3.41840       -1.77474        0.15744
N          2.37446        0.14750        0.00189
O          2.76685        1.31176        0.00708
O          3.14936       -0.80599       -0.00183
