15
id_2160_cb.log	Energy: -794003.0433231
C          0.01820        3.43341        0.00626
H          0.39551        3.82352        0.95864
H         -0.99007        3.83129       -0.14115
H          0.65950        3.83338       -0.78642
C          0.00518        1.92514       -0.00558
C          1.19725        1.19292       -0.00450
H          2.15290        1.71254       -0.00763
C          1.18153       -0.19384        0.00013
C         -0.00527       -0.99213        0.00285
C         -1.18347       -0.18725        0.00024
C         -1.18912        1.20267       -0.00438
H         -2.14118        1.72812       -0.00737
Cl        -2.73209       -1.01821       -0.00087
O         -0.00752       -2.28094        0.00532
Cl         2.72254       -1.03866       -0.00082
