19
id_2300_ca.log	Energy: -242184.6668489
C         -3.09975        0.28216        0.00926
H         -3.41611        0.63551        0.99741
H         -3.67837       -0.61503       -0.22720
H         -3.35872        1.06185       -0.71399
C         -1.62069       -0.00743       -0.00805
C         -1.13543       -1.31816       -0.00761
H         -1.83327       -2.15169       -0.01311
C          0.23881       -1.56222       -0.00153
H          0.60322       -2.58716       -0.00228
C          1.17207       -0.52417        0.00246
C          0.66968        0.78592       -0.00074
C         -0.69839        1.04326       -0.00673
H         -1.03763        2.07688       -0.01141
O          1.50700        1.88024       -0.00089
H          2.43613        1.59666       -0.00243
C          2.65550       -0.78224        0.00609
H          2.85419       -1.85678        0.00935
H          3.14006       -0.35003        0.89043
H          3.14373       -0.35490       -0.87865
