20
id_255_cb.log	Energy: -205923.4454828
C         -1.20750       -0.88987        1.04646
H         -1.80682       -1.77473        0.81564
H         -1.75668       -0.27943        1.78333
H         -0.27078       -1.22434        1.49782
N         -0.94615       -0.14742       -0.18659
C         -2.21946        0.17519       -0.82573
H         -2.76410       -0.74514       -1.05296
H         -2.04118        0.71513       -1.75965
H         -2.85354        0.80266       -0.17676
C         -0.23088        1.10583        0.10836
H         -0.18800        1.68058       -0.82447
H         -0.80775        1.70683        0.83445
C          1.19395        0.90214        0.61797
H          1.19734        0.41220        1.59835
H          1.64402        1.89182        0.75585
C          2.05449        0.10018       -0.34988
H          3.09058        0.06551        0.00002
H          2.05342        0.59307       -1.33435
O          1.61593       -1.24945       -0.47018
H          0.65546       -1.17750       -0.65276
