17
id_2297_ca.log	Energy: -272671.3259686
C          2.82581       -0.88495       -0.00001
H          3.88073       -0.61882       -0.00002
H          2.60229       -1.47615       -0.89018
H          2.60230       -1.47619        0.89013
N          2.06079        0.35421        0.00002
H          2.55689        1.23836        0.00001
C          0.73663        0.37354        0.00001
N          0.09635        1.57686        0.00000
C         -1.25955        1.65300       -0.00001
H         -1.67530        2.65238       -0.00001
C         -2.00235        0.51753       -0.00000
H         -3.08291        0.52717        0.00000
C         -1.27181       -0.69779       -0.00000
N          0.04776       -0.77358        0.00001
O         -1.97110       -1.82079       -0.00000
H         -1.36505       -2.58723        0.00000
H          0.64320        2.43640       -0.00004
