29
id_256_ca.log	Energy: -279995.1478529
C          1.01066        1.43552       -0.74193
H          0.50075        1.03704       -1.62211
H          1.99483        1.79974       -1.04751
H          0.44081        2.28165       -0.34898
C          1.21095        0.38606        0.33841
C          1.99665        0.97584        1.51575
H          2.11133        0.24286        2.32075
H          1.49300        1.86566        1.90792
H          2.99011        1.26107        1.16258
C          1.91770       -0.86698       -0.12252
H          1.93514       -1.67588        0.60960
C          2.56895       -0.99438       -1.27333
H          3.11651       -1.90373       -1.50075
H          2.58450       -0.21048       -2.02540
N         -0.13532       -0.01545        0.95463
H         -0.44723        0.77093        1.54141
C         -1.34884       -0.45641        0.13514
C         -0.96834       -1.52831       -0.88247
H         -0.47514       -2.36389       -0.37741
H         -0.31667       -1.14035       -1.66589
H         -1.89206       -1.89127       -1.33971
C         -2.34393       -1.01943        1.15717
H         -1.92067       -1.90819        1.63528
H         -3.26045       -1.30158        0.63533
H         -2.58702       -0.27451        1.91967
C         -1.94410        0.72067       -0.51533
C         -2.49981        1.65095       -1.04181
H         -2.98276        2.48282       -1.51331
H          0.06286       -0.78494        1.61163
