21
id_2013_ca.log	Energy: -323973.1096031
C         -3.44209        0.82122        0.00000
H         -4.01881        0.52255        0.88206
H         -4.01881        0.52255       -0.88205
H         -3.32907        1.90688       -0.00000
C         -2.10196        0.14652       -0.00000
C         -2.03930       -1.27942       -0.00000
H         -2.96642       -1.84507       -0.00000
C         -0.82548       -1.90942       -0.00000
H         -0.75424       -2.99435       -0.00000
C          0.36622       -1.13356        0.00000
C          1.67128       -1.68935        0.00000
H          1.78672       -2.76964        0.00000
C          2.76566       -0.85500       -0.00000
H          3.76796       -1.27298       -0.00000
C          2.61536        0.55243       -0.00000
H          3.48460        1.20322        0.00000
C          1.35627        1.10429        0.00000
C          0.20026        0.27129        0.00000
N         -1.01557        0.89198       -0.00000
O          1.19139        2.45955       -0.00000
H          0.22858        2.63256        0.00001
