17
id_2321_cb.log	Energy: -306973.6340049
C         -0.53325        1.68755        0.00126
H         -0.33396        2.75472        0.00524
C         -1.79602        1.19243       -0.00181
H         -2.66708        1.83956       -0.00199
C         -1.98360       -0.23412       -0.00369
N         -0.98425       -1.10061       -0.00089
C          0.27880       -0.60678       -0.00163
C          0.56781        0.78174       -0.00051
N          1.83551        1.25481        0.00137
C          2.79292        0.34967        0.00219
H          3.82186        0.69568        0.00337
C          2.51178       -1.03322        0.00201
H          3.33245       -1.74578        0.00353
N          1.28749       -1.51770        0.00015
N         -3.25231       -0.71749       -0.05324
H         -3.37903       -1.69896        0.15940
H         -4.00997       -0.10191        0.21168
