13
id_235_cb.log	Energy: -237382.8669412
C          2.45779       -0.81980        0.00001
H          2.57326       -1.45758       -0.88265
H          2.57357       -1.45673        0.88324
H          3.25309       -0.07073       -0.00047
C          1.09956       -0.17755       -0.00003
C          0.95715        1.21210       -0.00005
H          1.81239        1.87773       -0.00008
C         -0.34803        1.69034       -0.00002
H         -0.53631        2.76318       -0.00003
N         -1.42367        0.90888        0.00001
C         -1.21083       -0.44729        0.00001
N          0.04498       -0.99470       -0.00000
O         -2.21988       -1.22525        0.00005
