26
id_2219_ca.log	Energy: -208351.4609466
C          4.33122        0.52464        0.10797
H          4.25776        1.51383       -0.35717
H          5.27270        0.07065       -0.21602
H          4.38439        0.67068        1.19243
C          3.13205       -0.34139       -0.26489
H          3.23593       -1.33357        0.19286
H          3.11389       -0.50102       -1.35066
C          1.80588        0.27618        0.17255
H          1.69546        1.26509       -0.29406
H          1.82550        0.44616        1.25813
C          0.59902       -0.58858       -0.18110
H          0.70359       -1.57267        0.29584
H          0.58342       -0.76782       -1.26495
C         -0.72777        0.03674        0.24386
H         -0.82456        1.01688       -0.24331
H         -0.71854        0.22101        1.32647
C         -1.91896       -0.85509       -0.10380
H         -1.78272       -1.84010        0.35635
H         -1.96885       -1.01649       -1.18829
C         -3.25441       -0.32561        0.38525
H         -3.24287       -0.11444        1.45553
H         -4.06893       -1.01488        0.16428
N         -3.60099        0.96423       -0.29744
H         -3.61269        0.84476       -1.31722
H         -2.92179        1.70138       -0.07731
H         -4.52701        1.29955       -0.00999
