57
id_2084_cb.log	Energy: -1122213.8944844
C         -0.05680       -4.55967       -2.21717
H          0.62107       -5.21706       -2.76591
H         -0.78860       -5.17255       -1.68140
H         -0.60352       -3.93826       -2.93370
C          0.69248       -3.69409       -1.25421
C          2.08916       -3.76978       -1.13994
H          2.65096       -4.46834       -1.75330
N          2.77725       -3.00559       -0.29889
C          2.07257       -2.15374        0.45198
C          0.68608       -2.07117        0.35070
H          0.12598       -1.37477        0.96630
N         -0.00343       -2.83622       -0.49849
C          2.80544       -1.23915        1.39295
O          2.17271       -0.46097        2.12040
N          4.14544       -1.34081        1.37827
H          4.53693       -1.94042        0.65718
C          5.01109       -0.31415        1.94212
H          4.48842        0.14114        2.78534
H          5.91805       -0.79223        2.31833
C          5.38076        0.75732        0.89670
H          5.99312        0.29535        0.11481
H          5.98368        1.52225        1.39697
C          4.13335        1.35215        0.30041
C          3.45216        2.38510        0.95171
H          3.89675        2.85288        1.82709
C          2.19001        2.79040        0.52192
H          1.65221        3.57628        1.04331
C          1.61403        2.15167       -0.57256
C          2.29116        1.15395       -1.27020
H          1.83321        0.67287       -2.13028
C          3.55430        0.76762       -0.83335
H          4.08511       -0.02335       -1.35828
S         -0.04949        2.55738       -1.06475
O         -0.37928        3.87059       -0.45284
O         -0.07364        2.57266       -2.55268
N         -0.83870        1.31762       -0.42760
C         -2.18913        1.27161       -0.63948
O         -2.88297        2.14484       -1.21094
N         -2.75588        0.11152       -0.18212
H         -2.16365       -0.43878        0.43321
C         -4.19186        0.00287        0.05637
H         -4.69767        0.42594       -0.81941
C         -4.62525        0.78186        1.30270
H         -4.35198        1.83766        1.18832
H         -4.06523        0.38905        2.16433
C         -6.12690        0.63160        1.55615
H         -6.68114        1.08207        0.72028
H         -6.41152        1.18093        2.46071
C         -6.51411       -0.84354        1.67996
H         -7.59554       -0.94288        1.82895
H         -6.02610       -1.27051        2.56793
C         -6.07740       -1.62828        0.44091
H         -6.63445       -1.26062       -0.43251
H         -6.32462       -2.68993        0.55297
C         -4.57755       -1.47065        0.17865
H         -4.01053       -1.91467        1.01113
H         -4.28784       -2.00435       -0.73398
