22
id_2262_ca.log	Energy: -253905.2545380
C          2.62404        0.29463        0.18817
H          3.65869        0.57838        0.35538
C          2.31728       -1.03141       -0.12797
H          3.11284       -1.76581       -0.20367
C          0.99523       -1.41294       -0.35367
H          0.74610       -2.44099       -0.60257
C          0.00294       -0.44306       -0.26097
C          0.30061        0.88381        0.05849
C          1.62101        1.25994        0.28639
H          1.86942        2.28880        0.53063
C         -0.95800        1.71827        0.11504
H         -1.23805        1.90888        1.15796
H         -0.84488        2.68883       -0.37410
C         -1.99936        0.82600       -0.59356
H         -2.01094        1.05158       -1.66287
H         -3.01677        0.94786       -0.21318
C         -1.48437       -0.61122       -0.43669
N         -2.06067       -1.24284        0.81035
H         -1.86988       -0.66331        1.63774
H         -1.64963       -2.16912        0.97556
H         -1.77024       -1.27463       -1.25282
H         -3.07822       -1.35467        0.72813
