25
id_2286_ca.log	Energy: -278556.8018648
C         -3.31600        0.37547        0.07145
H         -4.37026        0.63095        0.11094
C         -2.35068        1.36933        0.23486
H         -2.65095        2.39894        0.40163
C         -0.99921        1.04204        0.19071
H         -0.25026        1.82024        0.32802
C         -0.60167       -0.28090       -0.03081
C         -1.57073       -1.26967       -0.20017
H         -1.26264       -2.29687       -0.37487
C         -2.92480       -0.94374       -0.14283
H         -3.67200       -1.72046       -0.27152
C          0.85928       -0.64442       -0.06739
C          1.66826       -0.33230        1.19431
H          1.32444        0.60876        1.63642
H          1.54625       -1.12942        1.92947
C          3.09713       -0.18582        0.67617
H          3.51985       -1.16421        0.42869
H          3.76104        0.31666        1.38122
C          2.90582        0.64423       -0.58490
H          3.68638        0.53908       -1.33608
H          2.75259        1.69782       -0.35055
N          1.60332        0.13207       -1.16163
H          1.77842       -0.48492       -1.96070
H          0.97780       -1.69642       -0.33211
H          1.03174        0.91009       -1.50756
