17
id_2151_ca.log	Energy: -587043.4882783
C         -0.03709       -1.07692        0.27760
H         -0.62286       -1.96467        0.49902
C          1.35077       -1.18481        0.24344
H          1.83372       -2.14054        0.41843
C          2.10796       -0.04565       -0.01026
C          1.51679        1.19782       -0.21901
H          2.12738        2.07331       -0.41445
C          0.13071        1.29502       -0.17184
H         -0.34929        2.25608       -0.32905
C         -0.65110        0.16111        0.06666
C         -2.13422        0.34190        0.11655
O         -2.65728        1.38686        0.51426
N         -2.85954       -0.69150       -0.35976
H         -2.46741       -1.60239       -0.57293
O         -4.21848       -0.70605       -0.13046
H         -4.63477       -0.34135       -0.93292
Cl         3.84901       -0.17749       -0.06112
