32
id_2358_ca.log	Energy: -606810.0349949
C         -2.92913       -2.10862       -0.93270
H         -3.18811       -3.16256       -0.95400
C         -1.85461       -1.64095       -1.68637
H         -1.27570       -2.32617       -2.29700
C         -1.51968       -0.28921       -1.65321
H         -0.67696        0.08185       -2.23226
C         -2.26146        0.60001       -0.86951
C         -3.34442        0.12652       -0.12232
H         -3.91581        0.81998        0.48970
C         -3.67368       -1.22506       -0.14954
H         -4.51174       -1.58923        0.43584
C         -1.86409        2.04384       -0.78714
H         -2.71205        2.70360       -0.60170
H         -1.31297        2.37823       -1.66700
N         -0.92065        2.28807        0.39848
H         -1.41772        2.08067        1.27855
C          0.30791        1.50867        0.32483
C          1.37469        2.04274       -0.38070
H          1.29617        3.04269       -0.79521
C          2.53631        1.29907       -0.55587
H          3.38209        1.70913       -1.09363
C          2.58552        0.01774       -0.03146
C          1.53258       -0.55689        0.65989
H          1.59098       -1.56302        1.05713
C          0.39520        0.21072        0.83633
N         -0.70405       -0.39994        1.59122
O         -1.43003        0.34059        2.24038
O         -0.82379       -1.60401        1.53747
N          3.80800       -0.77635       -0.21532
O          4.72593       -0.26582       -0.82964
O          3.83146       -1.89813        0.25615
H         -0.68061        3.29000        0.41073
