44
id_24_cb.log	Energy: -744424.5757738
C         -1.84611        2.70275       -0.07460
H         -0.77744        2.57429       -0.25108
H         -2.07085        2.54406        0.98339
H         -2.12614        3.72788       -0.33825
C         -2.60711        1.73925       -0.95079
O         -2.13330        1.28809       -1.99714
N         -3.85899        1.43831       -0.52883
H         -4.12599        1.75651        0.39582
C         -4.67363        0.39312       -1.12494
H         -5.72037        0.61954       -0.91378
H         -4.53175        0.39516       -2.20799
C         -4.34355       -0.99418       -0.57145
C         -2.93941       -1.50022       -0.91100
H         -2.55226       -1.04968       -1.82480
H         -2.90125       -2.59097       -0.98805
N         -2.19228       -1.03703        0.25709
C         -3.03935       -0.75165        1.28702
O         -2.77277       -0.42375        2.42686
O         -4.32357       -0.90821        0.87073
C         -0.79424       -0.86877        0.25783
C         -0.03643       -1.46727       -0.74850
H         -0.51365       -2.08235       -1.50328
C          1.34357       -1.28118       -0.80243
H          1.89455       -1.75593       -1.60575
C          2.02181       -0.51191        0.14657
C          1.22382        0.05176        1.15178
C         -0.14581       -0.08839        1.22417
H         -0.67906        0.39374        2.03211
F          1.82453        0.77933        2.11572
N          3.42254       -0.31674        0.17190
C          4.17387       -1.14272       -0.77363
H          3.92402       -2.19598       -0.61670
H          3.93209       -0.88006       -1.81683
C          5.66268       -0.94106       -0.55155
H          6.23216       -1.51980       -1.28217
H          5.93889       -1.27121        0.46029
O          6.02727        0.42044       -0.72686
C          5.31217        1.23814        0.18825
H          5.58438        0.96589        1.21843
H          5.61791        2.26990        0.00073
C          3.81377        1.09420       -0.00282
H          3.53930        1.44050       -1.01225
H          3.29656        1.71544        0.72884
H         -5.11809       -1.70646       -0.85357
