22
id_2024_cb.log	Energy: -183394.5371545
C          0.72668       -0.29498        1.49386
H          1.76691       -0.16484        1.81024
H          0.43364       -1.32278        1.73077
H          0.10984        0.38566        2.09100
C          0.60065       -0.00089       -0.00903
C          1.24153        1.36044       -0.29787
H          2.32193        1.29166       -0.13879
H          0.85994        2.14511        0.36212
H          1.06812        1.66316       -1.33629
C          1.38681       -1.05756       -0.79275
H          2.43500       -1.04607       -0.47679
H          1.35008       -0.84702       -1.86662
H          1.00720       -2.06951       -0.62605
N         -0.81211        0.00250       -0.48939
C         -1.56891        1.17450       -0.05788
H         -2.59805        1.07298       -0.41504
H         -1.16181        2.09046       -0.48914
H         -1.61212        1.29317        1.03813
C         -1.55345       -1.18267       -0.06446
H         -1.01277       -2.09773       -0.31304
H         -2.51175       -1.21068       -0.59227
H         -1.77125       -1.19412        1.01615
