14
id_235_ca.log	Energy: -237671.0387817
C         -2.44702       -0.91577       -0.00001
H         -2.52175       -1.55876        0.88295
H         -2.52219       -1.55775       -0.88368
H         -3.28025       -0.21068        0.00057
C         -1.13276       -0.20116        0.00003
C         -1.04078        1.19028        0.00001
H         -1.92586        1.81539        0.00002
C          0.23341        1.73890       -0.00001
H          0.37647        2.81573        0.00000
N          1.34563        0.99583       -0.00001
C          1.13766       -0.31828       -0.00001
N         -0.02476       -0.96068        0.00002
O          2.26332       -1.06345       -0.00001
H          2.01793       -2.00616        0.00003
