18
id_2300_cb.log	Energy: -241889.1287677
C         -3.07458        0.23740        0.00000
H         -3.37651        0.81427        0.88152
H         -3.63913       -0.69988       -0.00002
H         -3.37651        0.81431       -0.88149
C         -1.58657       -0.02198       -0.00000
C         -1.08273       -1.32592        0.00000
H         -1.76124       -2.17565        0.00000
C          0.30485       -1.52570       -0.00000
H          0.69557       -2.54307       -0.00000
C          1.20721       -0.46706       -0.00000
C          0.71719        0.87958       -0.00000
C         -0.69042        1.05146       -0.00000
H         -1.07600        2.07152       -0.00001
O          1.54160        1.90004        0.00000
C          2.69399       -0.69792        0.00000
H          2.92380       -1.76801       -0.00004
H          3.17175       -0.24651        0.87878
H          3.17176       -0.24644       -0.87874
