27
id_2243_ca.log	Energy: -372927.4201665
C         -3.76920        0.01322       -1.27156
H         -3.65067        1.09225       -1.36371
H         -4.82476       -0.25484       -1.23941
H         -3.26118       -0.50521       -2.08356
N         -3.14881       -0.42031        0.02272
C         -3.82899        0.22280        1.19321
H         -3.74898        1.30407        1.08946
H         -3.33938       -0.11959        2.10373
H         -4.87429       -0.08370        1.17525
C         -1.68915       -0.21631        0.02989
C         -0.86547       -1.33254        0.06601
H         -1.29004       -2.33128        0.09891
C          0.51326       -1.15146        0.05651
H          1.16889       -2.01387        0.08242
C          1.04242        0.13839        0.01208
C          0.19556        1.24822       -0.02185
H          0.62037        2.24530       -0.05659
C         -1.18205        1.07790       -0.01451
H         -1.84043        1.94026       -0.04687
C          2.51366        0.38148       -0.00526
O          3.01534        1.48839       -0.03326
O          3.22522       -0.74509        0.01043
C          4.65057       -0.57928       -0.01040
H          4.97531       -0.02129        0.86959
H          5.06190       -1.58650        0.00203
H          4.95254       -0.05271       -0.91751
H         -3.31582       -1.43168        0.10527
