27
id_233_cb.log	Energy: -693242.5575130
C         -2.87767        2.90283       -0.06097
H         -2.37413        3.30604        0.82333
H         -3.90278        3.27682       -0.08739
H         -2.34050        3.27292       -0.93984
C         -2.84153        1.40419       -0.03240
C         -3.99546        0.65488       -0.02942
H         -4.97771        1.11227       -0.04881
C         -3.84607       -0.74941        0.00138
N         -2.64102       -1.32487        0.02826
C         -1.58708       -0.48914        0.01890
N         -1.61157        0.84020       -0.00897
N         -0.37891       -1.14857        0.04126
H         -0.48025       -2.15660        0.02731
C          0.93609       -0.68305        0.02595
C          1.93959       -1.66322       -0.06542
H          1.65507       -2.70992       -0.12921
C          3.28183       -1.31852       -0.07789
H          4.04300       -2.08814       -0.15054
C          3.63740        0.02451        0.00076
C          2.66555        1.01009        0.09288
H          2.95141        2.05490        0.15605
C          1.31655        0.66368        0.10739
H          0.56516        1.43503        0.17955
Cl         5.33147        0.47311       -0.01649
N         -4.92999       -1.56487       -0.03879
H         -4.78861       -2.53377        0.21716
H         -5.83041       -1.16679        0.19356
