24
id_2173_ca.log	Energy: -385010.0782326
C          2.00885        3.15758        0.06510
H          2.65782        3.17067       -0.81726
H          2.65855        3.12722        0.94651
H          1.43838        4.08960        0.08840
C          1.09270        1.96497        0.03587
C         -0.27527        2.08897        0.04816
H         -0.73240        3.07640        0.07869
C         -1.13132        0.95350        0.01392
C         -2.54276        1.11971       -0.00208
H         -2.94440        2.12962        0.02618
C         -3.37783        0.03141       -0.06001
H         -4.45529        0.16631       -0.07335
C         -2.82981       -1.27249       -0.11475
H         -3.49267       -2.13053       -0.17847
C         -1.46815       -1.46721       -0.09285
H         -1.07099       -2.47331       -0.14417
C         -0.57744       -0.36016       -0.01395
C          0.85420       -0.47006       -0.00471
C          1.64558        0.65813        0.00325
H          2.72690        0.55161        0.01039
C          1.52773       -1.79436        0.06459
O          1.06463       -2.79171        0.59059
O          2.74816       -1.79502       -0.49488
H          3.15283       -2.67371       -0.35772
