23
id_2168_cb.log	Energy: -300973.6020772
C         -2.52131       -0.44015        0.15773
H         -3.58188       -0.17885        0.07616
H         -2.46904       -1.48172        0.50458
C         -1.84313       -0.33463       -1.20961
H         -1.97723        0.68015       -1.61087
H         -2.31580       -1.01448       -1.92616
C         -0.35501       -0.68156       -1.11046
H          0.14690       -0.56845       -2.07978
H         -0.24972       -1.72886       -0.80837
C          0.38459        0.15371       -0.05887
C         -0.34024        0.13717        1.29353
H         -0.22275       -0.87519        1.69489
H          0.16631        0.82319        1.98394
C         -1.83303        0.46343        1.18237
H         -2.29131        0.34369        2.16968
H         -1.98130        1.51565        0.90172
C          1.84651       -0.33012        0.10689
O          1.99665       -1.52467        0.46241
O          2.75861        0.50735       -0.12039
N          0.45996        1.57718       -0.54529
H          1.03758        2.13705        0.09228
H         -0.46216        2.01979       -0.61906
H          0.90836        1.61915       -1.46771
