19
id_2288_ca.log	Energy: -182170.8205331
C         -1.84734       -1.19244        0.04220
H         -2.31663       -0.97291        1.00758
H         -1.86898       -2.27108       -0.12210
H         -2.44050       -0.70803       -0.73992
C         -0.43593       -0.72694        0.02469
C          0.71244       -1.35628       -0.18659
H          0.77531       -2.41262       -0.41979
C          1.90912       -0.46445       -0.00612
H          2.63993       -0.56497       -0.81128
H          2.41608       -0.68759        0.93866
C          1.27855        0.92792       -0.00577
H          1.26193        1.35226       -1.01078
H          1.71216        1.64008        0.69396
N         -0.16650        0.69813        0.37365
C         -1.09142        1.68052       -0.25782
H         -1.07292        1.51668       -1.33551
H         -0.73397        2.68096       -0.01470
H         -2.09422        1.53359        0.14119
H         -0.26522        0.79676        1.39363
