22
id_2279_cb.log	Energy: -264423.1745805
C          3.30714        0.96197       -0.80929
H          3.46442        2.04292       -0.82881
H          3.10431        0.62280       -1.83706
H          4.23967        0.49110       -0.48308
N          2.24056        0.63102        0.13142
H          1.40039        1.12143       -0.17763
C          1.94830       -0.79959        0.08192
H          1.75295       -1.14756       -0.94685
H          2.83371       -1.33958        0.43525
C          0.75372       -1.16600        0.96315
H          0.94981       -0.84701        1.99134
H          0.63989       -2.25453        0.95967
C         -0.52373       -0.53825        0.46603
C         -1.06315        0.59176        1.08600
H         -0.57432        1.00952        1.96073
C         -2.22264        1.16209        0.57156
H         -2.65927        2.03959        1.03857
C         -2.80997        0.58459       -0.54881
H         -3.71557        0.98791       -0.98808
C         -2.20207       -0.53840       -1.10060
H         -2.63569       -1.01644       -1.97572
N         -1.08711       -1.09660       -0.61828
