21
id_2401_cb.log	Energy: -370875.4922350
C         -1.37919       -0.43579        1.82193
H         -0.94297        0.21678        2.58347
H         -1.00567       -1.45037        1.96700
H         -2.46640       -0.44599        1.93830
C         -0.99888        0.06610        0.41924
C         -1.55773        1.41581        0.26746
N         -2.02959        2.47154        0.18958
C          0.51912        0.08013        0.20743
C          1.22971       -1.11246        0.39488
H          0.70650       -2.01714        0.69223
C          2.60732       -1.15301        0.19345
H          3.14302       -2.08596        0.34331
C          3.29561       -0.00389       -0.20017
H          4.36992       -0.03619       -0.35597
C          2.59294        1.18308       -0.39370
H          3.11540        2.08400       -0.70223
C          1.21155        1.22488       -0.19380
H          0.68085        2.15972       -0.35252
C         -1.61071       -0.82799       -0.72431
O         -1.84867       -2.02165       -0.43387
O         -1.75782       -0.27170       -1.84052
