26
id_2012_cb.log	Energy: -279015.0187149
C         -1.50124        1.86323       -0.84512
H         -1.26240        2.76192       -0.26725
H         -2.32022        2.09763       -1.53081
H         -0.62057        1.60420       -1.44397
C         -1.88819        0.71011        0.07222
C         -0.82173        0.48616        1.17547
H         -0.75755        1.40463        1.76959
H         -1.16374       -0.30770        1.84817
C          0.54026        0.14102        0.62983
C          0.85909       -1.17497        0.27270
H          0.13101       -1.96582        0.44036
C          2.10251       -1.48819       -0.27490
H          2.33083       -2.51603       -0.54109
C          3.05178       -0.48775       -0.47342
H          4.02165       -0.73036       -0.89681
C          2.74938        0.82653       -0.11887
H          3.48467        1.61246       -0.26428
C          1.50506        1.13478        0.42612
H          1.27428        2.16104        0.70293
N         -2.19136       -0.46826       -0.74519
H         -1.31635       -0.77743       -1.17227
C         -2.74570       -1.57888        0.02309
H         -2.96641       -2.41092       -0.65062
H         -3.68718       -1.26129        0.48252
H         -2.09797       -1.96076        0.82511
H         -2.81792        0.97408        0.59203
