25
id_2136_ca.log	Energy: -312531.9680822
C         -3.48252       -0.62761       -0.27886
H         -4.42936       -1.12416       -0.46699
C         -2.79459       -0.01575       -1.32655
H         -3.20381       -0.03485       -2.33182
C         -1.58158        0.62306       -1.08525
H         -1.04316        1.10143       -1.89945
C         -1.04836        0.65976        0.20610
C         -1.73884        0.04203        1.25055
H         -1.32505        0.06972        2.25526
C         -2.95312       -0.59878        1.00931
H         -3.48499       -1.07219        1.82863
C          0.28199        1.32894        0.45811
H          0.37839        1.62011        1.51067
H          0.39635        2.23550       -0.14332
C          1.44601        0.44084        0.15932
N          2.66390        0.88403       -0.08824
C          3.62665       -0.22609       -0.14083
H          4.30208       -0.11589       -0.98721
H          4.20282       -0.25587        0.78649
C          2.69254       -1.44073       -0.28105
H          2.98398       -2.27047        0.36024
H          2.61550       -1.78531       -1.31449
N          1.40276       -0.87649        0.14461
H          0.52955       -1.39226        0.15486
H          2.92206        1.85744        0.02741
