16
id_262_cb.log	Energy: -320857.5125035
C          1.81983       -1.19851       -0.18878
H          2.90951       -1.24060       -0.27843
H          1.39915       -1.22351       -1.20447
H          1.48347       -2.08919        0.34862
N          1.45446        0.00000        0.56032
C          1.81976        1.19854       -0.18876
H          1.48337        2.08920        0.34865
H          1.39907        1.22354       -1.20444
H          2.90944        1.24069       -0.27842
C          0.08700       -0.00004        1.03701
H         -0.08209       -0.88585        1.65728
H         -0.08211        0.88572        1.65735
C         -1.02082       -0.00001        0.00216
F         -2.22344       -0.00010        0.60668
F         -0.99031        1.07931       -0.79983
F         -0.99022       -1.07920       -0.79999
