15
id_283_cb.log	Energy: -1838638.3723002
C         -0.27895        2.30630        0.00294
H         -0.92240        2.39515       -0.87846
H          0.44366        3.12226        0.00624
H         -0.92411        2.38917        0.88362
C          0.43315        0.99039       -0.00136
C         -0.25812       -0.22569       -0.00232
C          0.48131       -1.39646        0.00193
H         -0.01511       -2.36371        0.00781
N          1.81064       -1.40138        0.00118
C          2.39764       -0.19119       -0.00434
N          1.76599        0.99696       -0.00256
N          3.75457       -0.16337       -0.05887
H          4.20370        0.70582        0.19745
H          4.23870       -1.01274        0.20046
Br        -2.14266       -0.29033        0.00067
