16
id_2045_cb.log	Energy: -449151.1639846
C          0.84049       -1.37481        0.03294
H          1.42140       -2.28669        0.06192
C         -0.53130       -1.38889        0.03140
H         -1.05969       -2.33411        0.05921
C         -1.28115       -0.19435        0.00866
C         -0.66907        1.11353       -0.02722
C          0.77868        1.07609       -0.02751
H          1.30060        2.02582       -0.05337
C          1.45660       -0.10766        0.00327
N          2.93181       -0.05680        0.00449
O          3.48132        1.03270        0.03137
O          3.53896       -1.11590       -0.02150
O         -1.26348        2.22797       -0.06982
N         -2.70211       -0.33863        0.00984
O         -3.18985       -1.46951       -0.11740
O         -3.42142        0.65216        0.14019
