30
id_2275_ca.log	Energy: -256917.5220121
C         -2.66233       -0.76495       -0.10984
H         -3.51575       -0.15252        0.19220
H         -2.70845       -0.89857       -1.19645
H         -2.75985       -1.73733        0.37545
C         -1.39069       -0.02858        0.28723
C         -1.42993        1.42090       -0.17972
H         -1.60967        1.43383       -1.26374
H         -2.29386        1.89183        0.29829
C         -0.14440        2.16816        0.14526
H         -0.19080        3.18720       -0.24934
H         -0.02216        2.24818        1.23149
C          1.03611        1.43270       -0.47413
H          0.93504        1.44210       -1.56812
H          1.98177        1.92791       -0.23310
C          1.17083       -0.02630       -0.01862
N         -0.17366       -0.72872       -0.30594
C         -0.17102       -2.17844        0.05802
H         -0.34858       -2.27088        1.12966
H         -0.96160       -2.67742       -0.49822
H          0.78470       -2.62305       -0.20715
C          1.50633       -0.14255        1.46371
H          0.75976        0.32411        2.11021
H          1.63157       -1.18638        1.76453
H          2.45961        0.36822        1.62764
C          2.25166       -0.69652       -0.86710
H          3.12994       -0.04523       -0.86550
H          1.92113       -0.81667       -1.90445
H          2.56130       -1.66660       -0.47288
H         -1.24699       -0.07743        1.37050
H         -0.29087       -0.67685       -1.32832
