7
id_2028_cb.log	Energy: -143417.8678298
C         -1.34796       -0.00000       -0.00413
H         -1.68679        0.00001        1.03840
H         -1.74487       -0.89485       -0.48859
H         -1.74488        0.89483       -0.48861
C          0.17456        0.00000       -0.01155
O          0.76356       -1.12029        0.00206
O          0.76356        1.12029        0.00206
