19
id_2396_cb.log	Energy: -429286.8750985
C          2.64691       -0.43197       -0.46196
H          2.85946       -0.26203       -1.52434
H          2.39315       -1.48658       -0.30601
C          1.49570        0.45255       -0.02262
C          0.23012        0.18409       -0.81742
C         -0.93165        1.06170       -0.36796
C         -1.91813        0.19586        0.05714
C         -1.48711       -1.14351       -0.08781
O         -2.05611       -2.20787        0.17089
O         -0.21393       -1.16795       -0.61893
O         -3.17148        0.49288        0.56536
H         -3.22020        1.45589        0.69303
O         -0.89540        2.32726       -0.39669
O          1.20267        0.25000        1.35293
H          2.04310        0.30152        1.83942
O          3.76621       -0.07014        0.34394
H          4.45433       -0.74595        0.24444
H          1.76774        1.50405       -0.19822
H          0.43172        0.32741       -1.88454
