26
id_2225_cb.log	Energy: -231961.0149742
C         -2.13714       -0.60534        1.13044
H         -1.51380       -1.36988        1.60021
H         -3.17320       -0.95768        1.15517
H         -2.08483        0.30965        1.74294
N         -1.73925       -0.39277       -0.25710
C         -2.56704        0.66502       -0.82370
H         -2.50883        1.61528       -0.26771
H         -3.61469        0.34758       -0.81926
H         -2.27302        0.85594       -1.86002
C         -0.30251       -0.09085       -0.40854
H         -0.17428        0.18108       -1.46675
C          0.56581       -1.32701       -0.15914
H          0.49436       -1.62463        0.89567
H          0.19347       -2.16406       -0.75984
C          2.03370       -1.04107       -0.49015
H          2.64162       -1.93173       -0.29706
H          2.12392       -0.81884       -1.56239
C          2.56026        0.14915        0.31345
H          2.55464       -0.10827        1.38174
H          3.59968        0.36363        0.04110
C          1.68499        1.38394        0.09376
H          1.75766        1.69432       -0.95791
H          2.04783        2.22224        0.69873
C          0.22047        1.08638        0.42968
H         -0.39279        1.97961        0.26401
H          0.14584        0.83385        1.49633
