38
id_2191_cb.log	Energy: -518125.7008248
C          2.72626       -1.90033       -1.26171
H          2.67169       -1.27995       -2.16438
H          1.94365       -2.65928       -1.31594
H          3.69850       -2.40825       -1.26074
C          2.59951       -1.02656       -0.00001
C          2.72627       -1.90033        1.26169
H          1.94366       -2.65929        1.31592
H          2.67171       -1.27995        2.16436
H          3.69851       -2.40825        1.26071
C          3.79433       -0.06375       -0.00001
H          3.80511        0.57741       -0.88897
H          4.72057       -0.64870       -0.00001
H          3.80511        0.57741        0.88894
C          1.26355       -0.27207       -0.00001
C          1.22674        1.09910        0.00001
H          2.13889        1.68226        0.00002
C          0.00000        1.79774        0.00002
C         -1.22674        1.09910        0.00001
H         -2.13889        1.68226        0.00001
C         -1.26355       -0.27206       -0.00001
C          0.00000       -1.02152       -0.00001
O          0.00000       -2.28339       -0.00000
C         -2.59951       -1.02656       -0.00002
C         -2.72626       -1.90033       -1.26172
H         -1.94365       -2.65928       -1.31595
H         -2.67170       -1.27995       -2.16439
H         -3.69850       -2.40825       -1.26075
C         -2.72627       -1.90033        1.26168
H         -2.67172       -1.27995        2.16435
H         -1.94366       -2.65929        1.31592
H         -3.69851       -2.40825        1.26070
C         -3.79432       -0.06376       -0.00003
H         -4.72057       -0.64870       -0.00002
H         -3.80511        0.57740       -0.88899
H         -3.80510        0.57742        0.88892
N         -0.00000        3.19029        0.00004
O         -1.08184        3.81615        0.00005
O          1.08183        3.81615        0.00005
