17
id_2027_ca.log	Energy: -680638.0106586
C         -1.13749       -1.50459        0.07950
H         -1.78504       -2.37176        0.12235
C          0.24470       -1.63811        0.07533
H          0.68790       -2.62689        0.11836
C          1.07800       -0.51578        0.03419
C          0.50531        0.76167       -0.02532
C         -0.87493        0.92062       -0.03979
H         -1.32259        1.90566       -0.09991
C         -1.66014       -0.22120        0.02062
N         -3.12146       -0.05375        0.01356
O         -3.81142       -1.05810        0.06629
O         -3.57056        1.07871       -0.04444
Cl         1.47191        2.20070       -0.14203
C          2.55880       -0.72700        0.09812
O          3.32423       -0.03188        0.73139
O          2.94005       -1.79764       -0.60140
H          3.90357       -1.92511       -0.49202
