26
id_2244_ca.log	Energy: -432319.2137667
C         -4.48936       -0.68743        0.18795
H         -5.47472       -0.21838        0.11330
H         -4.41011       -1.17419        1.16452
H         -4.40754       -1.44785       -0.59437
C         -3.41731        0.36552        0.02525
H         -3.48825        1.12864        0.80898
H         -3.48926        0.85554       -0.95245
O         -2.15135       -0.29651        0.12798
C         -1.01767        0.45058        0.02398
C         -1.03303        1.83000       -0.20492
H         -1.96990        2.36471       -0.30859
C          0.16832        2.52953       -0.30290
H          0.14744        3.59976       -0.48348
C          1.38308        1.86895       -0.17839
H          2.31793        2.41075       -0.26876
C          1.39051        0.48600        0.03883
C          0.19884       -0.24610        0.16003
C          0.18064       -1.73268        0.44654
H         -0.78781       -2.01585        0.85604
H          0.94815       -1.97992        1.18664
O          0.36444       -2.51897       -0.73026
H          1.29100       -2.38182       -0.99744
C          2.70251       -0.21639        0.08517
O          2.88361       -1.37325       -0.26065
O          3.70195        0.55449        0.52560
H          4.53476        0.04467        0.48505
