20
id_2034_cb.log	Energy: -229704.8684798
C         -2.23009       -0.88022       -0.94638
H         -1.73999       -1.83169       -1.17070
H         -2.07082       -0.20542       -1.79600
H         -3.30458       -1.05457       -0.83747
C         -1.66001       -0.25606        0.32581
C         -0.15250       -0.08783        0.18753
C          0.42814        1.12663       -0.18257
H         -0.19854        2.00026       -0.34016
C          1.80970        1.23565       -0.34449
H          2.24396        2.18898       -0.63118
C          2.63043        0.13019       -0.13605
H          3.70576        0.21624       -0.25853
C          2.06068       -1.08792        0.23594
H          2.69209       -1.95487        0.40689
C          0.68197       -1.19184        0.39520
H          0.23998       -2.14194        0.68903
N         -2.40960        0.96562        0.62577
H         -2.34532        1.58355       -0.18420
H         -1.93428        1.46329        1.37887
H         -1.83095       -0.95485        1.15317
