65
id_2109_cb.log	Energy: -1421320.8712325
C         -6.71727        3.85057        0.92062
H         -6.56037        4.90003        1.14973
C         -7.09858        2.96354        1.92795
H         -7.24054        3.32170        2.94306
C         -7.29995        1.61816        1.63419
H         -7.59879        0.92841        2.42028
C         -7.13127        1.13863        0.32972
C         -6.74548        2.03553       -0.67184
H         -6.61335        1.67311       -1.68905
C         -6.54010        3.38409       -0.37930
H         -6.24512        4.06804       -1.16920
C         -7.30225       -0.33169        0.02903
H         -7.41268       -0.49925       -1.04489
H         -8.21059       -0.71513        0.50611
C         -6.15397       -1.17955        0.57749
C         -6.25548       -2.68418        0.19722
O         -6.80593       -2.95212       -0.89612
O         -5.75852       -3.48799        1.02105
N         -4.81952       -0.63775        0.11216
H         -4.85039        0.37771        0.29533
C         -3.65735       -1.17550        0.90196
H         -3.91220       -1.06564        1.95746
H         -3.58494       -2.23784        0.66029
C         -2.38855       -0.42039        0.54142
H         -1.56910       -0.84915        1.12533
H         -2.49012        0.63124        0.84361
C         -2.08916       -0.49646       -0.95633
H         -1.91583       -1.54860       -1.22008
C         -3.31396       -0.02446       -1.74525
H         -3.48657        1.04550       -1.56103
H         -3.15457       -0.14921       -2.82099
C         -4.56354       -0.79856       -1.36118
H         -5.44120       -0.43489       -1.89618
H         -4.45231       -1.87028       -1.54385
C         -0.87724        0.34334       -1.35310
H         -1.13727        1.40292       -1.23275
H         -0.67829        0.18269       -2.43049
N          0.33080        0.09943       -0.56530
C          1.37862        1.01170       -1.03028
H          1.01483        2.03857       -0.92729
H          1.58540        0.84627       -2.10540
C          2.67010        0.83873       -0.23893
H          3.42031        1.54746       -0.60303
H          2.49054        1.04981        0.82160
C          3.15590       -0.59883       -0.36552
H          3.42820       -0.82186       -1.40548
C          2.05733       -1.55142        0.07271
H          2.37628       -2.58765       -0.07481
H          1.86694       -1.40156        1.14194
C          0.78069       -1.28610       -0.71943
H         -0.00219       -1.95922       -0.36059
H          0.95235       -1.52025       -1.78811
O          4.28395       -0.85056        0.48452
C          5.50270       -0.35950        0.13768
C          5.80317        0.26437       -1.07606
H          5.05013        0.41643       -1.83909
C          7.10072        0.70383       -1.31667
H          7.33794        1.18910       -2.25736
C          8.10265        0.53434       -0.36957
C          7.79414       -0.08971        0.84162
C          6.50608       -0.53300        1.09607
H          6.26557       -1.01783        2.03579
Cl         9.01048       -0.32280        2.06336
Cl         9.70975        1.10524       -0.71313
H         -6.11863       -1.09345        1.66623
