44
id_2269_cb.log	Energy: -972922.3789643
C         -1.46034        0.92048        2.70244
H         -0.59950        1.35636        3.21905
H         -1.69269       -0.02787        3.19621
H         -2.31520        1.59321        2.82108
C         -1.12891        0.74091        1.22218
C         -0.03418       -0.27855        1.02958
H         -0.31389       -1.30044        1.29158
C          1.19672       -0.08192        0.51816
C          1.71958        1.26919        0.22897
C          1.69997        2.37210        1.04045
H          1.31047        2.34250        2.05280
C          2.25123        3.53609        0.42508
H          2.32886        4.50059        0.91298
C          2.68211        3.29963       -0.84647
H          3.14343        3.99240       -1.53822
S          2.43320        1.65804       -1.31156
C          2.09688       -1.21308        0.22701
C          3.46769       -1.22618        0.21006
H          4.06535       -0.34836        0.42960
C          4.01567       -2.50700       -0.09757
H          5.07806       -2.71522       -0.14698
C          3.05483       -3.44774       -0.32222
H          3.18347       -4.49163       -0.57689
S          1.46857       -2.78812       -0.16722
N         -2.32952        0.40887        0.42119
C         -2.01124        0.45847       -1.01187
H         -1.33612        1.30619       -1.17883
H         -1.45897       -0.44867       -1.31862
C         -3.22485        0.63266       -1.92077
H         -3.65039        1.63111       -1.75616
H         -2.85521        0.61413       -2.95334
C         -4.34819       -0.39769       -1.76509
H         -5.04497       -0.26198       -2.59996
H         -3.94762       -1.41656       -1.85971
C         -5.11933       -0.24472       -0.44938
H         -6.12592       -0.66341       -0.55901
H         -5.25648        0.82732       -0.26246
C         -4.45350       -0.89884        0.76962
H         -4.76643       -1.94812        0.83971
H         -4.81206       -0.40511        1.68069
C         -2.92471       -0.89317        0.76426
H         -2.55920       -1.66712        0.06999
H         -2.58909       -1.20096        1.75829
H         -0.78406        1.70699        0.84362
