44
id_2144_ca.log	Energy: -783417.0957421
C          1.39086        3.33593        0.91934
H          2.22382        3.20555        1.61726
H          0.50743        2.84118        1.33346
H          1.17406        4.40493        0.83407
C          1.76187        2.79117       -0.45035
H          0.98674        2.96765       -1.19222
H          2.67267        3.26934       -0.81089
N          2.06778        1.34032       -0.39904
C          3.36816        0.98594       -0.37853
H          4.06237        1.80135       -0.54982
C          3.86291       -0.27646       -0.15610
C          2.93810       -1.35283        0.08640
O          3.25113       -2.54618        0.27893
C          1.51182       -0.96658        0.07031
C          1.10250        0.36239       -0.17069
C         -0.28378        0.60945       -0.20166
C         -1.25650       -0.35497        0.05082
C         -0.77549       -1.65023        0.32454
C          0.55631       -1.96343        0.31103
H          0.87591       -2.97926        0.51627
F         -1.66397       -2.62164        0.62349
N         -2.60656        0.02285       -0.01285
C         -3.05433        0.92258        1.05766
H         -2.29215        1.67616        1.26084
H         -3.23203        0.35404        1.98441
C         -4.32368        1.63235        0.63491
H         -4.72435        2.24127        1.44572
H         -4.16181        2.24913       -0.25092
N         -5.36165        0.61665        0.27302
H         -5.61868        0.07516        1.11061
H         -6.21607        1.08895       -0.04618
C         -4.89272       -0.33763       -0.79500
C         -3.61265       -0.99812       -0.30312
H         -3.24840       -1.65691       -1.09412
H         -3.84993       -1.60750        0.58259
C         -5.98919       -1.34434       -1.08083
H         -5.66186       -2.01481       -1.87973
H         -6.90363       -0.83961       -1.40625
H         -6.21009       -1.94342       -0.19111
F         -0.74519        1.83639       -0.51087
C          5.36879       -0.43122       -0.15710
O          6.03361        0.44794       -0.77780
O          5.87157       -1.40086        0.47322
H         -4.68698        0.28402       -1.67015
