19
id_2198_cb.log	Energy: -158738.3075629
C         -2.50445       -0.11897       -0.28142
H         -3.32058       -0.78414        0.01571
H         -2.49155       -0.06408       -1.37455
H         -2.73260        0.87545        0.11130
C         -1.18630       -0.66438        0.24855
H         -1.09675       -1.71717       -0.04021
H         -1.19755       -0.63953        1.35493
N         -0.00000        0.02940       -0.26403
C          0.00001        1.41434        0.19543
H         -0.87886        1.94118       -0.18149
H          0.87886        1.94118       -0.18154
H          0.00004        1.48513        1.29884
C          1.18630       -0.66439        0.24854
H          1.19754       -0.63957        1.35492
H          1.09674       -1.71718       -0.04024
C          2.50445       -0.11898       -0.28142
H          2.73260        0.87542        0.11135
H          2.49154       -0.06403       -1.37454
H          3.32057       -0.78417        0.01568
