37
id_291_ca.log	Energy: -423776.0066337
C          0.44755        3.33632        0.05124
H         -0.26608        3.61139        0.83463
H          1.44320        3.66540        0.35833
H          0.18013        3.85568       -0.87346
C          0.46253        1.83373       -0.15104
C          0.79519        1.06336        1.11898
H          1.79246        1.35912        1.45054
H          0.09097        1.35778        1.90542
C          0.72101       -0.45609        0.90835
C         -0.64355       -0.88620        0.34934
C         -1.76060       -0.81111        1.39947
H         -1.85312        0.20686        1.80181
H         -1.48719       -1.45458        2.24264
C         -3.10535       -1.23637        0.80738
H         -3.04371       -2.28515        0.48797
H         -3.88611       -1.17563        1.57205
C         -3.47027       -0.36500       -0.39489
H         -3.62161        0.67115       -0.06221
H         -4.41785       -0.69109       -0.83436
C         -2.37572       -0.42671       -1.46270
H         -2.31282       -1.44730       -1.85745
H         -2.60358        0.23195       -2.30824
C         -0.99161       -0.09071       -0.91540
N         -0.89891        1.38919       -0.62551
H         -1.59522        1.66467        0.08137
C          1.84938       -0.95911        0.02104
O          1.72825       -1.78611       -0.86086
O          3.02428       -0.40961        0.33678
C          4.15052       -0.86320       -0.42885
H          3.99822       -0.64172       -1.48670
H          5.00728       -0.31399       -0.04350
H          4.29052       -1.93680       -0.29057
H          1.14788        1.56172       -0.96113
H          0.87608       -0.94633        1.87859
H         -0.56607       -1.92918        0.02240
H         -0.23337       -0.26276       -1.68430
H         -1.14241        1.90679       -1.48013
