33
id_271_cb.log	Energy: -562290.6286372
C         -4.01374       -1.71388        1.27618
H         -3.13526       -2.36932        1.32517
H         -4.90889       -2.33634        1.37495
H         -3.98246       -1.03296        2.13204
C         -4.02891       -0.95803       -0.05253
H         -4.88322       -0.26898       -0.05465
C         -4.17254       -1.92530       -1.22019
H         -4.20988       -1.38922       -2.17283
H         -5.08501       -2.52010       -1.11924
H         -3.32058       -2.61564       -1.24681
N         -2.82988       -0.13239       -0.26832
H         -2.02354       -0.76106       -0.29480
C         -2.59791        0.86350        0.77633
H         -3.54296        1.38708        0.95942
H         -2.25287        0.44503        1.73164
C         -1.57478        1.88344        0.25771
C         -0.19395        1.25549        0.15904
C          0.52621        0.99583        1.32899
H          0.10732        1.28046        2.29108
C          1.77164        0.38201        1.27516
H          2.32650        0.18550        2.18659
C          2.30146        0.01908        0.03824
C          1.59723        0.27214       -1.13624
H          2.01785       -0.01408       -2.09559
C          0.35237        0.89087       -1.07241
H         -0.19716        1.09840       -1.98453
C          3.66103       -0.60197       -0.04951
F          4.04627       -1.15650        1.11002
F          4.60740        0.29749       -0.37972
F          3.71381       -1.56383       -0.98674
O         -2.02484        2.39028       -0.98503
H         -2.45082        1.61969       -1.41098
H         -1.52715        2.72257        0.96018
