12
id_244_cb.log	Energy: -199309.3321800
C         -0.13938        2.76593       -0.00000
H         -0.73192        3.67816       -0.00000
C          1.24645        2.85453       -0.00000
H          1.73421        3.82661       -0.00000
C          2.06885        1.69129        0.00000
C          1.38613        0.43694        0.00000
H          1.98024       -0.47256        0.00000
C          0.00000        0.38766       -0.00000
C         -0.79880        1.53021       -0.00000
H         -1.88125        1.47008       -0.00000
I         -0.95553       -1.52050       -0.00000
O          3.37030        1.76060        0.00000
