42
id_2135_cb.log	Energy: -590147.4407141
C          4.67504       -1.15795       -0.02398
H          4.98500       -0.73514        0.94742
H          5.33747       -0.75846       -0.79594
H          4.81030       -2.24168        0.01738
N          3.28346       -0.83982       -0.34986
C          3.17229        0.62555       -0.41945
H          3.30517        1.06841        0.58440
H          4.01280        0.97814       -1.02474
C          1.90501        1.16393       -1.07933
H          2.05433        2.23661       -1.25689
H          1.78897        0.68480       -2.05855
C          0.59568        0.99051       -0.29966
C          0.62122        1.68160        1.04923
H          1.35469        1.30509        1.76062
C         -0.22257        2.64490        1.42262
H         -0.17586        3.03975        2.43529
C         -1.29990        3.20795        0.52906
C         -1.02371        2.89152       -0.93768
H         -0.20028        3.51827       -1.29881
H         -1.90844        3.12437       -1.53838
C         -0.62118        1.44736       -1.13942
O         -1.72328        0.57617       -0.74155
C         -1.13582       -0.58575       -0.30483
C          0.21864       -0.45809       -0.06128
C          0.97808       -1.53272        0.39769
C          0.30193       -2.74087        0.58169
H          0.85503       -3.61108        0.92435
C         -1.07152       -2.87134        0.34430
H         -1.54757       -3.83209        0.50394
C         -1.82189       -1.78324       -0.10508
O         -3.15954       -1.78153       -0.37006
C         -3.84962       -3.00506       -0.14989
H         -3.77558       -3.31265        0.89845
H         -3.45548       -3.79848       -0.79345
H         -4.89180       -2.81202       -0.40277
C          2.44591       -1.40252        0.72255
H          2.82357       -2.40432        0.94620
H          2.57173       -0.80784        1.64741
O         -2.58804        2.73377        0.93784
H         -2.59807        1.78442        0.72327
H         -1.34563        4.29336        0.65865
H         -0.42330        1.23732       -2.19784
