18
id_2245_ca.log	Energy: -205336.7836341
C         -1.78326        1.46406       -0.00000
H         -2.37948        1.20993        0.88419
H         -2.37946        1.20995       -0.88421
H         -1.61747        2.54289        0.00001
C         -0.46837        0.73349        0.00000
C          0.75507        1.40615        0.00000
H          0.75153        2.49219        0.00000
C          1.96388        0.71296        0.00000
H          2.89845        1.26442        0.00000
C          1.97739       -0.67905       -0.00000
H          2.91533       -1.22340       -0.00000
C          0.77340       -1.37806       -0.00000
H          0.75355       -2.46415       -0.00001
C         -0.41173       -0.66048        0.00000
N         -1.68022       -1.40504        0.00000
H         -2.25244       -1.18582       -0.82767
H         -1.51424       -2.41937       -0.00001
H         -2.25243       -1.18583        0.82769
