12
id_2378_ca.log	Energy: -317485.9381182
C         -0.89279       -0.92240        0.00000
N          0.36858       -1.34033        0.00001
C          1.24988       -0.34402        0.00000
N          0.98138        0.95996       -0.00000
C         -0.32097        1.22975       -0.00000
N         -1.31307        0.34221       -0.00001
O         -0.62847        2.52237        0.00000
H         -1.59789        2.63231        0.00003
O          2.52452       -0.72334       -0.00000
H          3.10220        0.06300       -0.00004
O         -1.80607       -1.88808       -0.00000
H         -2.69913       -1.49576       -0.00001
