30
id_269_cb.log	Energy: -413112.0111682
C         -3.64512        1.36300       -0.86071
H         -4.68991        1.23863       -1.15998
H         -3.07397        1.66587       -1.74681
H         -3.58750        2.16876       -0.12335
C         -3.08876        0.06261       -0.29593
H         -3.66473       -0.21207        0.59706
C         -3.20734       -1.06572       -1.32061
H         -4.24551       -1.18103       -1.64836
H         -2.87604       -2.02462       -0.91090
H         -2.59475       -0.83811       -2.20192
N         -1.70812        0.29641        0.15701
H         -1.15914        0.57437       -0.65980
C         -1.07309       -0.87781        0.75394
H         -1.77623       -1.31290        1.47304
H         -0.79854       -1.65956        0.03375
C          0.17467       -0.41807        1.51968
C          1.25720        0.04593        0.55982
C          1.57543        1.38937        0.36570
H          1.05268        2.13869        0.95186
C          2.55541        1.76972       -0.55176
H          2.78813        2.82100       -0.68663
C          3.23642        0.80422       -1.28925
H          4.00156        1.09558       -2.00140
C          2.93805       -0.54659       -1.11359
H          3.44847       -1.32788       -1.66654
C          1.95768       -0.88693       -0.19881
F          1.65865       -2.19441       -0.02304
O         -0.19546        0.60437        2.42528
H         -0.87376        1.11235        1.93679
H          0.55852       -1.25751        2.10849
