22
id_2048_cb.log	Energy: -441295.5955832
C          0.02258        1.45870       -0.20678
H         -0.46899        2.40339        0.01107
C          1.32965        1.26079        0.21598
H          1.86606        2.03032        0.75891
C          1.93978        0.04393       -0.07995
C          1.28901       -0.96769       -0.77861
H          1.79214       -1.90342       -0.99305
C         -0.02023       -0.74551       -1.18985
H         -0.54768       -1.52407       -1.73359
C         -0.67012        0.46381       -0.91349
C         -2.09797        0.69523       -1.33898
H         -2.15539        1.62858       -1.91084
H         -2.42036       -0.11674       -1.99661
C         -3.04436        0.80229       -0.13781
H         -4.06418        0.98424       -0.50081
H         -2.77267        1.65536        0.49128
C         -3.09717       -0.45736        0.73071
O         -2.97476       -1.57886        0.16221
O         -3.29574       -0.29689        1.97039
N          3.31383       -0.17675        0.35681
O          3.85083       -1.24161        0.08165
O          3.87807        0.71166        0.98183
