26
id_2009_cb.log	Energy: -279013.1632385
C         -3.12903        1.61791       -0.36352
H         -3.83871        1.43177       -1.17562
H         -2.29536        2.20682       -0.77786
H         -3.63393        2.22291        0.39339
N         -2.70506        0.34554        0.21428
H         -2.07330        0.56725        0.98358
C         -1.93860       -0.42172       -0.76797
H         -2.61679       -0.68828       -1.58699
H         -1.13220        0.18411       -1.21791
C         -1.34484       -1.69319       -0.17637
H         -2.15169       -2.33198        0.20068
H         -0.84375       -2.24548       -0.98041
C         -0.33402       -1.44368        0.95718
H          0.04529       -2.41244        1.30075
H         -0.83630       -0.98065        1.81431
C          0.81963       -0.57430        0.51775
C          1.82401       -1.09846       -0.30405
H          1.78477       -2.14831       -0.58676
C          2.86933       -0.29694       -0.75566
H          3.64256       -0.72281       -1.38830
C          2.92553        1.04932       -0.39438
H          3.74037        1.67532       -0.74498
C          1.93104        1.58391        0.42154
H          1.96712        2.63030        0.70992
C          0.88735        0.77627        0.87270
H          0.11500        1.19797        1.51295
