31
id_292_ca.log	Energy: -280834.3648708
C         -3.51851       -0.79008        0.09951
H         -3.57082       -0.83623        1.19228
H         -3.63843       -1.79933       -0.30491
H         -4.34631       -0.17347       -0.25932
C         -2.20838       -0.17024       -0.34615
C         -1.97479        1.22817        0.20967
H         -2.06894        1.18881        1.30337
H         -2.77519        1.87369       -0.16392
C         -0.60130        1.77399       -0.17996
H         -0.44783        2.76108        0.26803
H         -0.54943        1.89803       -1.27004
C          0.51329        0.82844        0.26697
C          1.90515        1.31199       -0.14797
H          2.07750        2.30822        0.27386
H          1.92951        1.41666       -1.24192
C          2.99734        0.33783        0.29763
H          3.97782        0.69322       -0.03562
H          3.02242        0.30208        1.39480
C          2.73481       -1.06821       -0.24574
H          3.49458       -1.76877        0.11371
H          2.80168       -1.05299       -1.34138
C          1.34602       -1.56662        0.16232
H          1.14277       -2.55332       -0.26841
H          1.29051       -1.65940        1.25542
C          0.28940       -0.57242       -0.29935
N         -1.07494       -1.05577        0.10970
H         -1.10707       -1.13212        1.13670
H         -2.13435       -0.16095       -1.43786
H          0.48558        0.74230        1.36520
H          0.26250       -0.52812       -1.39488
H         -1.22018       -2.00607       -0.25459
