51
id_2142_ca.log	Energy: -1200157.1018849
C          0.26470       -1.38554        1.90457
H         -0.01218       -0.41466        1.49472
H          0.88706       -1.93123        1.18389
H          0.84673       -1.22031        2.81409
N         -0.92396       -2.16261        2.23653
C         -0.67604       -3.44839        2.88132
H         -0.51897       -4.22941        2.12781
H          0.21835       -3.35788        3.49846
H         -1.52205       -3.72385        3.51116
C         -2.11428       -1.99054        1.64346
O         -3.05326       -2.79269        1.76735
C         -2.37748       -0.71256        0.87856
C         -3.03982        0.31429        1.55267
H         -3.26668        0.19013        2.60782
C         -3.41990        1.48751        0.90858
H         -3.93205        2.26164        1.46416
C         -3.14953        1.65561       -0.45477
C         -2.52090        0.62796       -1.16117
H         -2.31475        0.74398       -2.22256
C         -2.14264       -0.52716       -0.48730
S         -1.24850       -1.73226       -1.43697
O         -1.76549       -1.78082       -2.79972
O         -1.15531       -2.98204       -0.68878
N          0.25244       -0.96859       -1.45490
H          0.36333       -0.10767       -0.89489
C          1.38739       -1.70696       -1.72269
O          1.33979       -2.79046       -2.29418
N          2.58813       -1.16067       -1.33515
H          3.39105       -1.74134       -1.56472
C          2.87267       -0.01124       -0.60134
N          4.15515        0.13210       -0.27812
C          4.44627        1.23479        0.41713
C          3.49611        2.18302        0.79249
H          3.75438        3.07028        1.35574
C          2.19783        1.90944        0.38799
N          1.87513        0.81719       -0.31463
O          1.23376        2.77958        0.70628
C         -0.10390        2.48234        0.27948
H         -0.71005        3.31579        0.63516
H         -0.44353        1.54789        0.73419
H         -0.15042        2.41638       -0.81070
O          5.71156        1.46101        0.78380
C          6.71000        0.49904        0.41697
H          6.48701       -0.47146        0.86442
H          7.64208        0.89427        0.81776
H          6.77300        0.40898       -0.66909
N         -3.49009        2.81840       -1.16531
H         -3.46219        2.75125       -2.17928
C         -3.65845        4.06696       -0.66229
H         -3.84310        4.80962       -1.44880
O         -3.61613        4.36811        0.52666
