27
id_2184_ca.log	Energy: -409640.9740828
C         -1.91709        2.65650       -0.76277
H         -2.56187        2.42406       -1.61503
H         -1.30983        3.53282       -0.98633
H         -2.52124        2.83892        0.13089
O         -0.98984        1.59515       -0.53515
C         -1.48598        0.36147       -0.20121
C         -2.85181        0.08831       -0.12095
H         -3.58303        0.86292       -0.32071
C         -3.27874       -1.19757        0.21135
H         -4.34344       -1.40258        0.27306
C         -2.35121       -2.20513        0.46142
H         -2.68003       -3.20535        0.72540
C         -0.98983       -1.91774        0.37867
H         -0.26047       -2.69706        0.58362
C         -0.52660       -0.63802        0.05187
C          0.93962       -0.40040       -0.05641
C          1.72154       -1.32374       -0.76915
H          1.21866       -2.14117       -1.27962
C          3.10719       -1.21809       -0.83653
H          3.68027       -1.94912       -1.39848
C          3.74797       -0.16697       -0.17902
H          4.82902       -0.07026       -0.21822
C          2.99709        0.76998        0.52323
H          3.47280        1.59950        1.03837
C          1.60657        0.66183        0.58212
O          0.94554        1.59992        1.34383
H          0.10127        1.82415        0.90177
