8
id_2010_cb.log	Energy: -201288.6610386
C          0.20682       -0.89065        0.00000
H          0.12911       -1.53320        0.88251
H          0.12911       -1.53320       -0.88250
C          1.51307       -0.24316       -0.00001
N          2.55173        0.27087        0.00000
C         -0.97303        0.10990       -0.00000
O         -2.11138       -0.42329        0.00000
O         -0.71382        1.33750       -0.00000
