38
id_2099_cb.log	Energy: -799145.1670438
C         -6.04121       -1.42435       -0.65734
H         -5.57086       -2.34897       -1.00299
H         -7.10541       -1.46284       -0.90686
H         -5.94229       -1.36087        0.42922
C         -5.40513       -0.22456       -1.32758
H         -5.48925       -0.28551       -2.41343
H         -5.84862        0.71342       -0.98867
O         -3.98564       -0.18667       -1.08567
C         -3.60073        0.29000        0.11543
O         -4.39321        0.74382        0.93644
N         -2.26189        0.18904        0.31376
C         -1.33188       -0.06679       -0.79189
H         -1.07475        0.88255       -1.27867
H         -1.82273       -0.70206       -1.52624
C         -0.07153       -0.75335       -0.27986
H         -0.33107       -1.75056        0.09668
H          0.62889       -0.87670       -1.11280
C          0.60394        0.02908        0.86118
C         -0.43141        0.24264        1.96350
H          0.00583        0.85594        2.75715
H         -0.69267       -0.73286        2.39138
C         -1.69137        0.92340        1.44628
H         -1.46078        1.94968        1.13430
H         -2.44094        0.96969        2.23486
N          1.72248       -0.74328        1.43796
H          1.42282       -1.63567        1.82278
C          2.82596       -0.82585        0.60982
C          3.83605       -1.83766        0.58426
H          3.82031       -2.72941        1.19967
C          4.81402       -1.54724       -0.31968
H          5.68192       -2.14573       -0.56470
S          4.54932       -0.05848       -1.15311
C          3.07503        0.19820       -0.27412
C          2.20352        1.35952       -0.23744
N          1.06856        1.33151        0.38009
N          2.62274        2.50162       -0.88571
H          2.06711        3.31999       -0.65912
H          3.61936        2.68798       -0.84691
