16
id_2120_ca.log	Energy: -191508.9386041
C         -2.52261        0.37261        0.38702
H         -2.32419        0.34380        1.46140
H         -3.55814        0.07130        0.21617
H         -2.41105        1.40376        0.03946
C         -1.58683       -0.57287       -0.36647
H         -1.79235       -0.53603       -1.44176
H         -1.73005       -1.60689       -0.04293
C         -0.15299       -0.23208       -0.16140
N          0.39464        0.98502       -0.20198
H         -0.13057        1.83890       -0.37016
C          1.75543        0.90648        0.01379
H          2.38418        1.78157        0.02287
C          2.04095       -0.40685        0.19309
H          2.96982       -0.91545        0.39240
N          0.84407       -1.08445        0.08104
H          0.71769       -2.08868        0.17293
