31
id_2255_ca.log	Energy: -468542.5357930
N          0.63609        2.19775       -0.94605
H          1.52293        2.69545       -1.00753
C          0.56227        0.99989       -0.43291
C          1.80555        0.32883       -0.04008
C          2.98565        0.51780       -0.77407
H          2.98237        1.12227       -1.67688
C          4.15304       -0.11676       -0.37015
H          5.06309        0.01230       -0.94601
C          4.15072       -0.92507        0.76703
H          5.06589       -1.41788        1.07950
C          2.97864       -1.11052        1.49998
H          2.98138       -1.73764        2.38499
C          1.80178       -0.49475        1.09381
H          0.88371       -0.63445        1.65642
C         -0.74897        0.39181       -0.22619
C         -1.00323       -0.94885       -0.62979
C         -2.27203       -1.47399       -0.46542
H         -2.49666       -2.48135       -0.79967
C         -3.29334       -0.71094        0.11660
C         -3.05909        0.59398        0.53102
H         -3.83832        1.18484        1.00143
C         -1.79751        1.14673        0.35292
O         -1.66001        2.42564        0.79602
H         -0.72833        2.67618        0.90855
O         -4.50184       -1.30245        0.25365
H         -5.12960       -0.68254        0.66376
C          0.03914       -1.80797       -1.30444
H          0.70032       -2.28046       -0.57130
H          0.66427       -1.23426       -1.99350
H         -0.45548       -2.60117       -1.86868
H         -0.18912        2.66768       -1.31597
