35
id_2270_cb.log	Energy: -399554.4812819
C          3.38149        0.00449       -0.75149
H          3.13994       -0.12170       -1.81174
H          4.27529       -0.58952       -0.53857
H          3.63028        1.05635       -0.57724
C          2.23827       -0.45553        0.15703
H          2.14489       -1.54104        0.05075
C          2.56129       -0.16769        1.62136
H          2.65528        0.90616        1.81325
H          3.51569       -0.63400        1.88496
H          1.79295       -0.57271        2.28717
N          0.90671        0.09866       -0.21641
C          0.32385       -0.63653       -1.35699
H         -0.44323       -0.00753       -1.82280
H          1.08823       -0.81205       -2.12849
C         -0.30172       -1.97025       -0.92888
H          0.36182       -2.46620       -0.21184
H         -0.34858       -2.62826       -1.80274
C         -1.71222       -1.88467       -0.32977
H         -1.97294       -2.86591        0.07912
H         -2.44411       -1.65660       -1.11071
C         -1.87141       -0.83803        0.78812
C         -2.12243        0.55180        0.19474
O         -2.96942        0.67455       -0.67846
C         -1.34988        1.76679        0.65984
H         -2.09460        2.54599        0.84851
H         -0.80075        1.57159        1.58332
C         -0.40035        2.24178       -0.45680
H         -0.90376        2.11889       -1.42192
H         -0.21780        3.31426       -0.34109
C          0.96289        1.54959       -0.44187
H          1.55155        1.97908        0.37448
H          1.48938        1.78653       -1.37943
O         -0.80482       -0.86129        1.71207
H         -0.04371       -0.48310        1.19147
H         -2.78758       -1.06747        1.34788
