25
id_2216_cb.log	Energy: -208060.1413837
C         -0.00001        2.23984       -0.00564
H         -0.00002        3.12821        0.63367
H         -0.88504        2.29592       -0.64866
H          0.88503        2.29594       -0.64865
C         -0.00000        0.96835        0.83937
H         -0.87492        0.97026        1.50213
H          0.87491        0.97027        1.50213
C          0.00000       -0.35597        0.05288
C          1.24049       -0.47786       -0.84862
H          1.20070       -1.46481       -1.32603
H          1.16281        0.26128       -1.65502
C          2.58668       -0.30846       -0.14717
H          3.40593       -0.49463       -0.84839
H          2.70724       -1.00970        0.68585
H          2.71435        0.70554        0.24536
C         -1.24049       -0.47787       -0.84862
H         -1.16281        0.26126       -1.65502
H         -1.20070       -1.46483       -1.32602
C         -2.58668       -0.30846       -0.14717
H         -2.71435        0.70554        0.24535
H         -2.70723       -1.00970        0.68586
H         -3.40592       -0.49465       -0.84839
N          0.00001       -1.50532        0.98283
H         -0.80423       -1.39804        1.60295
H          0.80424       -1.39802        1.60296
