7
id_2432_cb.log	Energy: -330200.2249065
C         -1.02738        0.01131       -0.00000
O         -1.58020        1.12691       -0.00000
C          0.52917        0.01448       -0.00000
F          1.01405       -0.62675        1.08139
F          1.06169        1.24387       -0.00004
F          1.01405       -0.62683       -1.08135
O         -1.52215       -1.13532       -0.00000
