18
id_2360_ca.log	Energy: -267591.1177093
C          0.14812        1.20755       -0.24428
H          0.68556        2.14742       -0.33612
C         -1.22516        1.21715       -0.02351
H         -1.78588        2.14140        0.06139
C         -1.88117       -0.00000        0.08148
C         -1.22516       -1.21715       -0.02351
H         -1.78588       -2.14140        0.06139
C          0.14812       -1.20755       -0.24428
H          0.68556       -2.14742       -0.33612
C          0.84185        0.00000       -0.35843
C          2.32792        0.00000       -0.57294
H          2.66479        0.89058       -1.10308
H          2.66479       -0.89058       -1.10308
N          3.04318       -0.00000        0.74920
H          2.79204       -0.82915        1.30045
H          2.79204        0.82915        1.30045
F         -3.20934       -0.00000        0.28931
H          4.06158        0.00000        0.61933
