7
id_2063_cb.log	Energy: -1756867.7484725
C          0.34517        0.00016        0.96133
H          0.29700        0.89885        1.57361
H          0.29699       -0.89832        1.57391
C          1.57647       -0.00001        0.04961
O          2.03524       -1.12396       -0.28594
O          2.03539        1.12382       -0.28614
Br        -1.27683       -0.00001       -0.13247
