30
id_2257_cb.log	Energy: -350861.7412158
C          2.68296        2.06522       -0.60000
H          3.31084        2.04148       -1.49756
H          3.12496        2.76711        0.11353
H          1.69452        2.44549       -0.88269
C          2.57228        0.67489        0.01083
H          1.97160        0.76288        0.93036
C          3.94449        0.14108        0.40254
H          3.87925       -0.81301        0.93477
H          4.44950        0.85381        1.06192
H          4.56459       -0.00370       -0.48952
N          1.92697       -0.21132       -0.97062
H          1.04496        0.23635       -1.22698
C          1.59326       -1.54257       -0.46265
H          1.10400       -2.08697       -1.27825
H          2.51974       -2.08158       -0.24129
C          0.67319       -1.58980        0.77073
H          0.48363       -2.64354        1.00691
H          1.17798       -1.15291        1.63930
C         -0.63120       -0.87204        0.52119
C         -0.90282        0.38036        1.08100
H         -0.17961        0.83092        1.75677
C         -2.08625        1.06030        0.80461
H         -2.29321        2.03023        1.24612
C         -3.02454        0.48707       -0.05171
C         -2.77686       -0.76109       -0.62393
H         -3.51613       -1.20384       -1.28657
C         -1.58865       -1.42460       -0.33667
H         -1.40448       -2.39811       -0.78585
O         -4.17774        1.18821       -0.29915
H         -4.73425        0.67602       -0.90906
