38
id_2190_ca.log	Energy: -471232.9028799
C         -2.94404       -1.33336        1.26371
H         -2.26923       -2.18941        1.31542
H         -3.97329       -1.71066        1.26730
H         -2.80401       -0.72520        2.16487
C         -2.72093       -0.48271       -0.00000
C         -3.79501        0.61323       -0.00001
H         -3.73248        1.24973       -0.88980
H         -3.73248        1.24974        0.88978
H         -4.78058        0.13628       -0.00001
C         -2.94403       -1.33337       -1.26370
H         -3.97329       -1.71066       -1.26730
H         -2.26922       -2.18942       -1.31540
H         -2.80400       -0.72521       -2.16487
C         -1.31019        0.12664       -0.00000
C         -1.11416        1.50150       -0.00000
H         -1.95129        2.19115       -0.00000
C          0.17132        2.04717       -0.00000
C          1.30598        1.22823       -0.00000
H          2.27881        1.70368       -0.00001
C          1.18230       -0.15166       -0.00000
C         -0.14356       -0.67986        0.00000
O         -0.35777       -2.01476        0.00001
H          0.47684       -2.50546        0.00003
C          2.42925       -1.05665       -0.00000
C          2.48529       -1.92605       -1.27419
H          2.48661       -1.28766       -2.16418
H          1.66370       -2.64093       -1.38701
H          3.41370       -2.50721       -1.26880
C          3.71445       -0.21638       -0.00002
H          4.57444       -0.89345       -0.00002
H          3.78688        0.41777        0.88991
H          3.78687        0.41776       -0.88996
C          2.48530       -1.92602        1.27421
H          2.48664       -1.28762        2.16418
H          3.41371       -2.50719        1.26882
H          1.66371       -2.64090        1.38705
N          0.22444        3.45488        0.00000
O          1.34216        3.95307        0.00001
