43
id_2135_ca.log	Energy: -590439.4743991
C          4.71404       -1.09819       -0.03220
H          5.00208       -0.66330        0.92594
H          5.31803       -0.68348       -0.83803
H          4.80969       -2.18264       -0.00524
N          3.28214       -0.74975       -0.28105
C          3.14284        0.74767       -0.40764
H          3.27381        1.15011        0.59993
H          3.98579        1.07178       -1.01951
C          1.85542        1.20251       -1.07650
H          1.98312        2.27095       -1.28559
H          1.76125        0.69254       -2.04302
C          0.55538        1.01141       -0.28611
C          0.56849        1.71500        1.05657
H          1.30676        1.35824        1.77361
C         -0.29715        2.66242        1.41878
H         -0.26062        3.06625        2.42809
C         -1.38521        3.19383        0.51882
C         -1.09939        2.87369       -0.94503
H         -0.28948        3.51604       -1.30907
H         -1.98756        3.08188       -1.54935
C         -0.66554        1.43799       -1.13877
O         -1.74893        0.54369       -0.74577
C         -1.14158       -0.60195       -0.30169
C          0.20537       -0.44337       -0.04121
C          0.97471       -1.50758        0.42594
C          0.33109       -2.73407        0.59843
H          0.90139       -3.59003        0.94687
C         -1.03567       -2.89010        0.34716
H         -1.49384       -3.86021        0.50064
C         -1.80330       -1.81535       -0.10670
O         -3.13376       -1.83966       -0.38135
C         -3.80789       -3.07331       -0.15845
H         -3.73332       -3.37319        0.89179
H         -3.39873       -3.86251       -0.79720
H         -4.85102       -2.89498       -0.41713
C          2.42179       -1.35770        0.80072
H          2.84544       -2.33905        1.01952
H          2.56085       -0.71794        1.67815
O         -2.66161        2.69494        0.93149
H         -2.65138        1.74252        0.73188
H         -1.45401        4.27883        0.63992
H         -0.45494        1.22861       -2.19460
H          3.00561       -1.17130       -1.17801
