32
id_2052_ca.log	Energy: -351756.9745011
C         -1.38191        1.28291        0.23454
H         -0.99131        2.28080        0.41134
C         -2.75885        1.07627        0.23087
H         -3.45004        1.89578        0.40385
C         -3.23282       -0.20460       -0.00290
C         -2.38575       -1.27883       -0.23393
H         -2.79163       -2.26858       -0.42123
C         -1.01413       -1.05207       -0.22601
H         -0.33213       -1.87799       -0.41041
C         -0.49611        0.22701        0.00613
C          0.98868        0.43361        0.05763
C          1.60936        0.00412        1.38473
H          1.32390        0.72076        2.16507
H          1.17112       -0.96262        1.66693
C          3.12794       -0.16414        1.31982
H          3.62205        0.81025        1.21017
H          3.47887       -0.59205        2.26458
C          3.50206       -1.06648        0.14610
H          2.94062       -2.00669        0.23490
H          4.56624       -1.32282        0.17490
C          3.17022       -0.39646       -1.18973
H          3.25241       -1.12927       -1.99846
H          3.91938        0.37907       -1.39387
C          1.77733        0.22742       -1.21862
C          1.55952        1.61536       -0.66796
H          0.87202        2.27314       -1.19177
H          2.41993        2.11373       -0.22778
N         -4.68523       -0.43466        0.01398
H         -4.94271       -1.26309       -0.53761
H         -5.19781        0.36790       -0.37396
H          1.17449       -0.01658       -2.08981
H         -5.03205       -0.58391        0.97132
