19
id_2055_cb.log	Energy: -416637.9896393
C          1.43898        2.25208        0.18935
H          1.84158        2.54677       -0.78490
H          2.28516        2.13838        0.87297
H          0.80193        3.06183        0.55395
C          0.64482        0.97613        0.07927
C         -0.74914        1.03822        0.08924
H         -1.25174        1.99543        0.17838
C         -1.49124       -0.13304       -0.01450
C         -0.90604       -1.38997       -0.10828
H         -1.51165       -2.28540       -0.18094
C          0.48124       -1.45094       -0.09251
H          0.97512       -2.41636       -0.14691
C          1.25575       -0.28884       -0.01378
C          2.76893       -0.44118       -0.03370
O          3.40821        0.26701       -0.85495
O          3.26281       -1.28399        0.76239
N         -2.95034       -0.03787       -0.01383
O         -3.46424        1.06842        0.07669
O         -3.60025       -1.07023       -0.10491
