15
id_2385_ca.log	Energy: -757438.0741762
C         -0.71606        2.36989       -0.00000
H         -0.92382        3.43350       -0.00000
C         -1.76809        1.45952        0.00000
H         -2.80036        1.79314        0.00000
C         -1.48204        0.10582        0.00000
C         -0.17129       -0.36847        0.00000
C          0.87120        0.55851        0.00000
C          0.59898        1.92390       -0.00000
H          1.42389        2.62778       -0.00000
Cl         2.51893        0.02295        0.00000
Cl         0.12803       -2.07134       -0.00000
N         -2.58204       -0.85905        0.00000
H         -2.56440       -1.46933       -0.83098
H         -3.49106       -0.37478       -0.00000
H         -2.56440       -1.46933        0.83098
