20
id_2031_cb.log	Energy: -229699.3983041
C         -2.47039        0.66415       -1.00656
H         -2.75549        1.56776       -0.45827
H         -3.21173        0.49805       -1.79182
H         -1.50069        0.85699       -1.48706
N         -2.47122       -0.47272       -0.08778
H         -2.18286       -1.29531       -0.61847
C         -1.49214       -0.29373        0.99267
H         -1.78863        0.58968        1.56843
H         -1.56914       -1.16011        1.65716
C         -0.05690       -0.13863        0.53612
C          0.64822       -1.25056        0.06305
H          0.16666       -2.22658        0.06588
C          1.95433       -1.12119       -0.40142
H          2.49139       -1.99460       -0.75929
C          2.57471        0.12871       -0.40117
H          3.59411        0.23112       -0.76058
C          1.88092        1.24371        0.06372
H          2.35701        2.21977        0.06520
C          0.57248        1.10809        0.52753
H          0.03056        1.97902        0.88973
