21
id_243_ca.log	Energy: -510753.4068166
C         -3.93698        0.13506       -0.00001
H         -5.01325        0.27001       -0.00002
C         -3.08154        1.20636       -0.00001
H         -3.45273        2.22776       -0.00002
C         -1.68038        0.97569        0.00000
C         -0.71245        2.01554        0.00000
H         -1.04446        3.04915       -0.00001
C          0.62333        1.70639        0.00002
H          1.36655        2.49676        0.00002
C          1.05560        0.35575        0.00003
C          0.13686       -0.67219        0.00002
C         -1.25891       -0.37427        0.00001
N         -2.11034       -1.43545        0.00001
C         -3.40091       -1.17718       -0.00000
H         -4.07057       -2.03318       -0.00001
O          0.54097       -1.96121        0.00001
H         -0.26161       -2.52227       -0.00001
C          2.51324        0.01533        0.00000
F          2.87369       -0.71400        1.07813
F          3.29409        1.10886        0.00019
F          2.87372       -0.71364       -1.07837
