19
id_215_ca.log	Energy: -600911.1899631
C          0.78786        1.39077        0.00001
H          0.35742        2.38875        0.00002
C          2.17206        1.24367        0.00002
H          2.82252        2.11226        0.00004
C          2.70533       -0.04044        0.00000
C          1.88986       -1.17184       -0.00002
H          2.32760       -2.16484       -0.00004
C          0.51083       -1.00816       -0.00003
H         -0.11977       -1.89197       -0.00006
C         -0.06025        0.27464       -0.00001
C         -1.50809        0.50123       -0.00002
H         -1.81799        1.54574       -0.00004
C         -2.46609       -0.43901        0.00001
H         -2.26200       -1.50489        0.00004
C         -3.88099       -0.03585        0.00000
O         -4.29923        1.11197       -0.00003
O         -4.71021       -1.09468        0.00004
H         -5.63213       -0.77183        0.00003
Cl         4.44098       -0.24362        0.00001
