19
id_2309_cb.log	Energy: -336139.7579623
C         -2.76066        0.14981        0.00000
H         -3.82652       -0.06045        0.00000
C         -2.30707        1.49043        0.00000
H         -3.02648        2.30477        0.00000
C         -0.95888        1.76547        0.00000
H         -0.61275        2.79462        0.00000
C          0.00000        0.71447        0.00000
C         -0.45294       -0.64070        0.00000
C         -1.84960       -0.88370        0.00000
H         -2.19376       -1.91378        0.00000
C          0.48908       -1.75368       -0.00000
C          1.84597       -1.41056       -0.00000
H          2.58221       -2.21095       -0.00000
C          2.28944       -0.06760       -0.00000
H          3.35717        0.14614       -0.00000
C          1.39724        0.97504       -0.00000
O          1.78714        2.30970       -0.00000
O          0.06381       -2.99085       -0.00000
H          2.75715        2.35490       -0.00000
