39
id_2191_ca.log	Energy: -518410.6001049
C         -2.71546       -1.89708        1.26454
H         -2.64566       -1.27585        2.16495
H         -1.94850       -2.67157        1.31779
H         -3.69582       -2.38750        1.26768
C         -2.58983       -1.02757       -0.00000
C         -2.71546       -1.89707       -1.26455
H         -1.94849       -2.67156       -1.31781
H         -2.64567       -1.27583       -2.16495
H         -3.69582       -2.38749       -1.26769
C         -3.78052       -0.05943        0.00001
H         -3.79042        0.57982        0.88987
H         -4.70577       -0.64471        0.00000
H         -3.79042        0.57983       -0.88986
C         -1.25481       -0.26573       -0.00000
C         -1.22796        1.12294        0.00000
H         -2.14220        1.70077        0.00001
C         -0.01032        1.79414       -0.00000
C          1.20829        1.12832       -0.00000
H          2.11987        1.71023       -0.00000
C          1.24237       -0.26211       -0.00000
C         -0.00506       -0.93902       -0.00000
O         -0.07177       -2.29254       -0.00001
H          0.80945       -2.69518       -0.00001
C          2.58717       -1.01070        0.00000
C          2.73928       -1.86318        1.27754
H          1.97619       -2.63509        1.41714
H          2.70855       -1.21673        2.16119
H          3.71042       -2.36933        1.25762
C          2.73930       -1.86317       -1.27754
H          2.70862       -1.21672       -2.16118
H          1.97619       -2.63505       -1.41718
H          3.71043       -2.36935       -1.25759
C          3.76927       -0.03118        0.00002
H          4.69918       -0.60869        0.00002
H          3.77161        0.60657        0.89030
H          3.77162        0.60658       -0.89026
N         -0.01221        3.24310        0.00000
O          1.06223        3.83565       -0.00003
O         -1.08865        3.83190        0.00002
