13
id_2402_cb.log	Energy: -250444.3678550
C          1.80256       -0.67550        0.00000
H          2.86678       -0.89742        0.00000
C          1.38157        0.65538        0.00000
H          2.08551        1.48034        0.00000
C          0.00000        0.89239        0.00000
C         -0.93717       -0.14353        0.00000
H         -2.00000        0.08377        0.00000
C         -0.52133       -1.50420        0.00000
C          0.88809       -1.72295        0.00000
H          1.24161       -2.75176        0.00000
O         -1.37863       -2.48263        0.00000
C         -0.47428        2.25090        0.00000
N         -0.85735        3.34730        0.00000
