36
id_2270_ca.log	Energy: -399845.4209098
C          3.42512        0.05775       -0.78379
H          3.15928       -0.00931       -1.84257
H          4.32616       -0.54045       -0.62582
H          3.66269        1.09668       -0.53997
C          2.33907       -0.49479        0.12375
H          2.21608       -1.56290       -0.06981
C          2.64862       -0.29611        1.59926
H          2.81390        0.75664        1.84559
H          3.56516       -0.84283        1.83573
H          1.84465       -0.68901        2.22988
N          0.96871        0.10304       -0.19475
C          0.32440       -0.59107       -1.36807
H         -0.41474        0.08688       -1.80138
H          1.11134       -0.73579       -2.11026
C         -0.31413       -1.92006       -0.96098
H          0.31662       -2.42247       -0.21911
H         -0.31298       -2.56661       -1.84258
C         -1.75592       -1.84275       -0.44281
H         -2.04187       -2.83827       -0.09005
H         -2.44069       -1.57879       -1.25396
C         -1.99119       -0.84230        0.69841
C         -2.15763        0.57964        0.16501
O         -2.96160        0.76633       -0.73161
C         -1.35345        1.74412        0.71017
H         -2.08219        2.53382        0.91344
H         -0.84373        1.49978        1.64479
C         -0.36463        2.26037       -0.35475
H         -0.82949        2.18834       -1.34236
H         -0.17823        3.32274       -0.17815
C          1.00904        1.59632       -0.33475
H          1.58615        1.96595        0.51468
H          1.55146        1.81995       -1.25527
O         -0.95082       -0.85705        1.66842
H         -0.79022       -1.78009        1.92930
H         -2.95042       -1.07900        1.17879
H          0.39367       -0.12739        0.63904
