33
id_2352_cb.log	Energy: -375517.2386438
C          2.16432       -2.20932       -0.59811
H          1.19572       -2.57923       -0.94998
H          2.39042       -2.73991        0.33401
H          2.92005       -2.48961       -1.33599
C          2.16149       -0.71481       -0.38921
C          3.09134        0.08038       -1.06375
H          3.79409       -0.39693       -1.74222
C          3.13814        1.46105       -0.87987
H          3.87131        2.05522       -1.41695
C          2.24676        2.06745       -0.00054
H          2.27540        3.14111        0.15880
C          1.31597        1.28654        0.68248
H          0.63136        1.75409        1.38409
C          1.25742       -0.09556        0.49481
C          0.19435       -0.91451        1.21208
C         -1.04788       -1.10905        0.32651
H         -1.71040       -1.83272        0.81515
H         -0.75691       -1.52237       -0.64836
N         -1.76364        0.16365        0.24016
H         -1.25066        0.77665       -0.39755
C         -3.13935        0.04340       -0.26831
H         -3.67859       -0.59289        0.44520
C         -3.22008       -0.59842       -1.65351
H         -4.25774       -0.63602       -2.00044
H         -2.82933       -1.62040       -1.65240
H         -2.64034       -0.00887       -2.37465
C         -3.77950        1.42539       -0.27787
H         -3.24603        2.08491       -0.97324
H         -3.75023        1.87961        0.71668
H         -4.82222        1.36582       -0.60316
O         -0.21777       -0.31229        2.42881
H         -0.95007        0.27776        2.15902
H          0.60394       -1.89864        1.46218
