17
id_262_ca.log	Energy: -321142.9455802
C          1.45763        1.36172        0.10333
H          2.40388        1.72563       -0.29371
H          1.44614        1.42775        1.19172
H          0.63285        1.92199       -0.33216
N          1.33239       -0.08030       -0.27364
C          2.58285       -0.82554        0.07164
H          2.46026       -1.86638       -0.22553
H          2.73288       -0.74337        1.14838
H          3.40753       -0.36516       -0.46987
C          0.16781       -0.76168        0.35500
H          0.13769       -1.78429       -0.02241
H          0.31099       -0.76162        1.43719
C         -1.14770       -0.09202        0.01701
F         -2.15503       -0.91949        0.29918
F         -1.34785        1.03715        0.70764
F         -1.21241        0.22052       -1.28524
H          1.21516       -0.13094       -1.29431
