27
id_2339_ca.log	Energy: -232254.3371639
C         -2.09301        1.00267        1.08348
H         -2.23565        0.31056        1.92188
H         -2.96812        1.65725        1.03265
H         -1.22733        1.63770        1.30412
C         -1.93667        0.23183       -0.22681
H         -1.70958        0.93788       -1.03496
C         -3.22580       -0.50914       -0.57934
H         -4.05014        0.19926       -0.70098
H         -3.49510       -1.21017        0.21889
H         -3.12013       -1.07484       -1.51049
C         -0.81228       -0.79601       -0.15133
H         -0.65180       -1.28638       -1.11548
H         -1.03500       -1.55642        0.60358
N          0.50122       -0.19657        0.23198
C          1.01252        0.85991       -0.71341
H          0.72738        0.53727       -1.71665
H          0.51693        1.80194       -0.47950
C          2.53932        0.87214       -0.51691
H          3.02925        0.72675       -1.48102
H          2.87821        1.82316       -0.10474
C          2.84502       -0.29896        0.44146
H          2.94909        0.05985        1.46912
H          3.75351       -0.83899        0.17241
C          1.61902       -1.19119        0.33613
H          1.43574       -1.84304        1.19015
H          1.60565       -1.76999       -0.59088
H          0.39993        0.23658        1.15846
