18
id_2040_ca.log	Energy: -288623.8886361
C         -2.96190        1.08108       -0.00005
H         -2.73147        1.68581        0.88329
H         -4.02171        0.82323       -0.00010
H         -2.73138        1.68581       -0.88337
C         -2.14072       -0.18001        0.00001
O         -2.69016       -1.28066        0.00006
C         -0.65860       -0.07512        0.00000
C         -0.00660        1.16717        0.00003
H         -0.57914        2.08950        0.00005
C          1.37944        1.24251        0.00003
H          1.88983        2.20059        0.00005
C          2.13172        0.06499       -0.00000
C          1.50018       -1.18377       -0.00002
H          2.10063       -2.08960       -0.00005
C          0.11478       -1.24494       -0.00002
H         -0.37925       -2.21174       -0.00004
O          3.48930        0.18972       -0.00000
H          3.90958       -0.68763       -0.00002
