24
id_2085_cb.log	Energy: -928464.2742808
C         -3.09178        0.38526        0.50418
H         -4.12821        0.25928        0.79353
C         -2.51068        1.61255        0.41661
H         -3.07947        2.50799        0.64222
C         -1.13778        1.76879        0.04219
C         -0.30902        0.71746       -0.26386
C         -0.91702       -0.58528       -0.21361
C         -2.29020       -0.74811        0.18244
N         -2.68854       -2.01824        0.16603
S         -1.41988       -2.90316       -0.32150
N         -0.31669       -1.72823       -0.53349
N          0.99527        0.88194       -0.71814
H          1.19793        1.73623       -1.22559
C          2.12066        0.23905       -0.23653
N          3.27497        0.40889       -0.77469
C          4.20641       -0.33813        0.08409
H          4.95713       -0.86371       -0.50854
H          4.73442        0.35777        0.74730
C          3.32341       -1.29296        0.89278
H          3.69543       -1.48162        1.90011
H          3.19081       -2.24900        0.37256
N          2.06083       -0.53726        0.91833
H          1.22863       -1.10803        1.02311
Cl        -0.51315        3.39354       -0.02686
