30
id_2284_cb.log	Energy: -280529.1487932
C         -3.34032        0.00213        0.18519
H         -3.41794       -0.03028        1.28100
H         -4.36294        0.02240       -0.20796
C         -2.58507        1.26641       -0.22556
H         -3.09828        2.15891        0.14950
H         -2.57795        1.33939       -1.32207
C         -1.14195        1.23928        0.28224
H         -1.14537        1.24773        1.38284
H         -0.61502        2.14416       -0.04131
C         -0.38754       -0.01106       -0.19089
H         -0.32925        0.02470       -1.29270
C         -1.16143       -1.27397        0.20657
H         -0.64668       -2.16302       -0.17035
H         -1.16508       -1.34846        1.30467
C         -2.60440       -1.24639       -0.30174
H         -2.59796       -1.25211       -1.40078
H         -3.13269       -2.15182        0.01745
C          1.04213       -0.01502        0.34126
C          1.87750        1.21797       -0.08007
H          1.51493        1.59202       -1.04487
H          1.78856        2.03545        0.64061
C          3.32448        0.69077       -0.20730
H          4.02450        1.21566        0.44814
H          3.68725        0.80312       -1.23312
C          3.20623       -0.80155        0.15772
H          3.40950       -0.94336        1.22507
H          3.89351       -1.44146       -0.39994
N          1.81313       -1.19598       -0.09552
H          1.69895       -1.23933       -1.11236
H          1.00230       -0.05330        1.44025
