13
id_2295_ca.log	Energy: -1814252.1531939
C          0.36759        1.18018        0.00007
H         -0.06578        2.17267        0.00010
C         -0.33781        0.01204        0.00004
C          0.40083       -1.18965        0.00009
H         -0.11850       -2.14422        0.00016
N          1.71422       -1.23418        0.00007
C          2.38564       -0.06538       -0.00001
N          1.71753        1.11727        0.00008
N          3.70479       -0.06751       -0.00013
H          4.24341        0.79183       -0.00025
H          4.18977       -0.95747       -0.00013
Br        -2.20995       -0.00534       -0.00004
H          2.24618        1.99173        0.00013
