30
id_2381_cb.log	Energy: -670922.2956627
C          4.45027        2.42891        0.00001
H          3.93286        2.81770        0.88282
H          3.93289        2.81771       -0.88282
H          5.48519        2.77171        0.00002
C          4.42636        0.92319        0.00000
O          5.46842        0.27927       -0.00001
C          3.10903        0.22763        0.00000
C          1.89969        0.92845        0.00000
H          1.89330        2.01400        0.00000
C          0.68390        0.25284        0.00000
H         -0.24388        0.81496        0.00000
C          0.66648       -1.14370        0.00000
C          1.87577       -1.85533       -0.00000
H          1.86778       -2.94199       -0.00001
C          3.08026       -1.17324       -0.00000
H          4.01604       -1.72279       -0.00001
S         -0.82516       -2.11098        0.00000
C         -2.10779       -0.88202        0.00000
C         -2.62589       -0.39862       -1.20584
H         -2.23386       -0.76946       -2.14844
C         -3.63807        0.54978       -1.20870
H         -4.03772        0.91977       -2.14876
C         -4.15941        1.04138       -0.00000
C         -3.63808        0.54978        1.20870
H         -4.03774        0.91976        2.14876
C         -2.62590       -0.39863        1.20583
H         -2.23388       -0.76947        2.14844
N         -5.12605        2.03212       -0.00000
H         -5.69155        2.07110        0.84070
H         -5.69155        2.07110       -0.84071
