18
id_2242_cb.log	Energy: -252230.1680174
C         -3.18377       -0.50838        0.00523
H         -4.18634       -0.08005        0.00797
H         -3.05053       -1.13061        0.89730
H         -3.05347       -1.12633       -0.89026
O         -2.28546        0.58890        0.00623
C         -0.94365        0.28886        0.00003
C         -0.42297       -1.00388       -0.00260
H         -1.07374       -1.87091        0.00212
C          0.95980       -1.19455       -0.00744
H          1.35777       -2.20602       -0.00821
C          1.84282       -0.11284       -0.01069
C          1.30268        1.18201       -0.00597
H          1.97191        2.03849       -0.00571
C         -0.06976        1.37965       -0.00010
H         -0.48463        2.38312        0.00690
N          3.23133       -0.30938       -0.08545
H          3.75229        0.45195        0.33880
H          3.52015       -1.19038        0.32862
