18
id_2259_ca.log	Energy: -493722.3514912
C         -2.35396       -1.00477        0.03135
H         -3.20574       -1.67541        0.06612
C         -2.52622        0.36027        0.24408
H         -3.51259        0.76421        0.44699
C         -1.43282        1.22148        0.19740
H         -1.55347        2.28675        0.36159
C         -0.17383        0.69742       -0.06494
C          0.02927       -0.66806       -0.28530
C         -1.08400       -1.50976       -0.22970
H         -0.94113       -2.57282       -0.40139
C          1.38722       -1.24250       -0.57101
H          1.96572       -0.63393       -1.26624
H          1.30281       -2.25397       -0.96564
N          2.20034       -1.34762        0.68768
H          1.71895       -1.92769        1.38554
H          2.37449       -0.42825        1.11101
Cl         1.19189        1.79578       -0.11633
H          3.11249       -1.77823        0.49453
