28
id_2382_cb.log	Energy: -326816.8723046
C         -0.85662       -1.08615       -0.19325
H         -0.21968       -1.94902       -0.37786
C         -2.23617       -1.24187       -0.22515
H         -2.67442       -2.21569       -0.42922
C         -3.08163       -0.14415       -0.00224
C         -2.49894        1.10431        0.24839
H         -3.14085        1.96483        0.41971
C         -1.11445        1.24511        0.27903
H         -0.68451        2.22452        0.47468
C         -0.26508        0.15834        0.05857
C          1.22319        0.28834        0.11393
C          1.96645       -0.41938        1.24745
H          1.86378        0.09759        2.20810
H          1.53861       -1.42287        1.36513
C          3.42776       -0.51401        0.77807
H          3.97359        0.39074        1.06226
H          3.95449       -1.36120        1.22483
C          3.34065       -0.61833       -0.75601
H          3.20320       -1.66319       -1.05895
H          4.24636       -0.24799       -1.24839
C          2.09363        0.16937       -1.11814
C          1.89731        1.50687       -0.45341
H          1.26035        2.21724       -0.97176
H          2.72545        1.95742        0.08770
N         -4.46915       -0.30755        0.03022
H         -4.97696        0.53851       -0.20663
H         -4.79319       -1.08516       -0.53560
H          1.63119        0.01645       -2.08896
