27
id_2186_ca.log	Energy: -714193.0561019
C          4.00695       -2.18876       -0.00000
H          4.82547       -2.90203       -0.00000
C          2.67064       -2.64769       -0.00001
H          2.47061       -3.71537       -0.00001
C          1.61520       -1.76072       -0.00001
H          0.59581       -2.13039       -0.00001
C          1.85163       -0.36344       -0.00000
C          3.19464        0.09709        0.00000
C          4.26074       -0.83680        0.00000
H          5.28049       -0.46002        0.00001
C          3.44853        1.50080        0.00001
H          4.48076        1.84139        0.00001
C          2.42994        2.41185        0.00001
H          2.61833        3.48082        0.00001
C          1.08185        1.97560       -0.00000
C          0.77916        0.60402       -0.00000
N         -0.50278        0.08332       -0.00000
N         -1.46829        0.89387       -0.00000
C         -2.72321        0.28555       -0.00000
N         -3.81544        0.99592       -0.00000
C         -4.91504        0.17255       -0.00001
H         -5.90597        0.60823       -0.00001
C         -4.65081       -1.16475        0.00000
H         -5.35406       -1.98786        0.00001
S         -2.95107       -1.44213        0.00001
O          0.14487        2.93756       -0.00001
H         -0.74920        2.51520       -0.00002
