36
id_2332_cb.log	Energy: -376396.3850951
C          4.42605       -1.34496        0.36040
H          5.21628       -1.92224       -0.12800
H          4.04974       -1.93363        1.20185
H          4.87575       -0.43076        0.76291
C          3.30511       -1.01077       -0.61878
H          2.85878       -1.93266       -1.01290
H          3.70576       -0.45374       -1.47361
C          2.20277       -0.17835        0.01500
C          1.09420        0.15010       -0.97795
H          0.68126       -0.80088       -1.33346
H          1.49969        0.68562       -1.85154
N          0.02015        0.91379       -0.33402
C          0.29504        2.35617       -0.34231
H          0.05549        2.78742       -1.32854
H          1.37039        2.49230       -0.19043
C         -0.45467        3.08800        0.76121
H         -1.53800        2.95560        0.67751
H         -0.24405        4.16068        0.71720
H         -0.14211        2.71437        1.74176
C         -1.29215        0.58492       -0.90414
H         -1.94764        1.45928       -0.82940
H         -1.21754        0.31847       -1.96882
C         -1.92730       -0.54517       -0.10286
C         -3.31062       -0.91307       -0.61145
H         -3.94278       -0.01678       -0.57328
H         -3.22092       -1.20151       -1.66530
C         -3.95156       -2.04389        0.18734
H         -4.08822       -1.75745        1.23406
H         -3.32395       -2.94140        0.16263
H         -4.93188       -2.30706       -0.22006
O         -2.03784       -0.12543        1.25667
H         -1.22080        0.37825        1.42859
O          1.64515       -0.92128        1.09634
H          0.81719       -0.45959        1.31843
H          2.63994        0.75706        0.40157
H         -1.27307       -1.43216       -0.15592
