27
id_225_cb.log	Energy: -302921.9505968
C          4.33006       -0.46972       -0.09734
H          4.57764       -1.04537       -0.99503
H          4.64024       -1.06827        0.76599
H          4.92437        0.44748       -0.10399
C          2.85630       -0.16315       -0.03942
C          1.91187       -1.19492       -0.12626
H          2.25406       -2.22071       -0.24244
C          0.55083       -0.92560       -0.06112
H         -0.16350       -1.74540       -0.12362
C          0.08400        0.38755        0.08667
C          1.02177        1.41471        0.16926
H          0.68074        2.44100        0.28167
C          2.38956        1.14273        0.10941
H          3.10368        1.95968        0.17758
C         -1.39777        0.67029        0.13640
C         -2.17140       -0.12103        1.23849
H         -1.52821       -0.85025        1.73794
H         -2.53903        0.57013        2.00212
C         -3.33490       -0.79385        0.49083
H         -4.26276       -0.81275        1.06867
H         -3.07543       -1.82628        0.23049
C         -3.43614        0.03603       -0.79024
H         -3.97225        0.97165       -0.59278
H         -3.94105       -0.47691       -1.61154
N         -2.05076        0.36149       -1.16109
H         -1.63407       -0.51403       -1.48640
H         -1.53429        1.74135        0.31904
