21
id_2428_ca.log	Energy: -360354.1750689
C         -3.61967        0.12912       -0.00000
H         -4.67704        0.37728       -0.00000
C         -3.22313       -1.23332        0.00000
H         -3.98056       -2.01151        0.00000
C         -1.89078       -1.56665        0.00000
H         -1.57570       -2.60707        0.00001
C         -0.89479       -0.55129        0.00000
C          0.48788       -0.86930        0.00000
H          0.78516       -1.91400        0.00001
C          1.43262        0.13338        0.00000
C          1.03729        1.49955       -0.00000
H          1.80014        2.27158       -0.00000
C         -0.29197        1.82907       -0.00000
H         -0.60227        2.87068       -0.00001
C         -1.29289        0.81667       -0.00000
C         -2.67837        1.13056       -0.00000
H         -2.97785        2.17556       -0.00001
C          2.88424       -0.17187        0.00001
O          3.75937        0.67788        0.00001
O          3.16451       -1.48279       -0.00001
H          4.13456       -1.59874       -0.00001
