18
id_2427_ca.log	Energy: -1902090.4475907
C         -1.70618        2.35123       -0.00000
H         -0.98195        3.16908       -0.00001
H         -2.34795        2.45139        0.87967
H         -2.34796        2.45138       -0.87967
C         -0.98179        1.03071        0.00000
C          0.41677        1.05148       -0.00000
H          0.93189        2.00702       -0.00001
C          1.14473       -0.13125        0.00000
C          0.52131       -1.37355        0.00001
H          1.09704       -2.29249        0.00002
C         -0.86609       -1.40690        0.00001
H         -1.36780       -2.36769        0.00002
C         -1.62237       -0.22722        0.00001
C         -3.10510       -0.33366        0.00000
O         -3.88092        0.60547        0.00001
O         -3.54536       -1.60392       -0.00002
H         -4.52164       -1.58842       -0.00002
Br         3.03260       -0.04594       -0.00000
