56
id_2112_ca.log	Energy: -1567768.4816039
C         -2.41967        0.42563       -1.64904
H         -1.82656        0.04208       -2.47329
C         -3.48990       -0.30183       -1.14415
H         -3.73450       -1.27270       -1.56223
C         -4.23506        0.19818       -0.08026
C         -3.90935        1.43939        0.47088
C         -2.84355        2.17708       -0.03290
H         -2.59595        3.14263        0.39593
C         -2.10098        1.66153       -1.09238
O         -1.04652        2.36309       -1.62892
C          0.05411        2.61313       -0.74005
H         -0.24936        3.33023        0.03383
C          0.52813        1.31888       -0.08809
H         -0.21680        0.93002        0.61235
H          0.67829        0.56256       -0.87236
C          1.82731        1.53681        0.66557
H          2.17359        0.61483        1.12548
H          1.74023        2.30297        1.44203
N          2.87779        2.02227       -0.28868
C          2.46526        3.35622       -0.85091
H          2.38547        4.03439        0.00240
H          3.26761        3.69320       -1.50799
C          1.15412        3.21104       -1.60811
H          1.30521        2.55466       -2.47351
H          0.85508        4.19439       -1.98007
C          4.25261        2.07339        0.30089
H          4.92078        2.41361       -0.49406
H          4.22267        2.82613        1.09415
C          4.77993        0.74907        0.87155
C          4.91401       -0.38768       -0.14536
H          5.43570       -1.21287        0.34689
H          5.51485       -0.05092       -0.99342
N          3.63630       -0.85888       -0.65863
H          3.39089       -0.63574       -1.61551
C          2.81579       -1.63898        0.08807
O          3.10127       -1.95737        1.24170
C          1.52748       -2.04047       -0.55770
C          1.47236       -2.24313       -1.90957
H          2.34326       -2.20517       -2.55329
N          0.31390       -2.53583       -2.53973
H          0.32635       -2.68987       -3.54606
C         -0.92178       -2.63064       -1.92092
O         -1.94000       -2.84926       -2.58114
C         -0.87175       -2.45463       -0.48618
H         -1.81239       -2.54899        0.04142
C          0.29195       -2.18729        0.16479
C          0.21396       -2.05123        1.67354
F          0.81745       -3.06684        2.29618
F          0.76400       -0.90902        2.11275
F         -1.05808       -2.04061        2.09469
O          6.10065        1.00288        1.31937
H          6.04610        1.54668        2.12172
Cl        -4.82500        2.09718        1.79450
Cl        -5.55654       -0.74522        0.54197
H          4.15863        0.41020        1.70742
H          2.89766        1.36817       -1.08127
