32
id_2170_cb.log	Energy: -538860.8957298
C          2.26882        1.14652       -1.26030
H          3.09154        0.75001       -0.63900
H          1.63496        0.31116       -1.57098
H          2.70385        1.58681       -2.16161
N          1.48395        2.15691       -0.55666
C          2.36916        3.26107       -0.19811
H          3.19295        2.93742        0.46199
H          1.80329        4.04161        0.31795
H          2.80729        3.69175       -1.10253
C          0.93418        1.59529        0.68944
H          0.51031        2.42454        1.26147
H          1.73372        1.15588        1.29975
C         -0.16262        0.58457        0.44350
C          0.03331       -0.80108        0.31112
C         -1.02197       -1.66729        0.00757
H         -0.85252       -2.73410       -0.09585
C         -2.30434       -1.16265       -0.14797
C         -2.52764        0.20713       -0.02353
C         -1.46386        1.06495        0.25517
O         -1.70313        2.40656        0.35174
H         -2.65155        2.56359        0.19814
O         -3.76464        0.76600       -0.17445
H         -4.40675        0.06352       -0.37805
O         -3.40861       -1.91933       -0.42287
H         -3.15248       -2.85273       -0.51150
C          1.38080       -1.41287        0.49586
O          2.19595       -1.09617        1.34089
O          1.60728       -2.39270       -0.38827
C          2.87074       -3.05974       -0.25936
H          2.88029       -3.82136       -1.03667
H          2.95777       -3.51811        0.72744
H          3.68542       -2.34866       -0.41067
