28
id_2179_ca.log	Energy: -589156.3076071
C         -2.93199       -1.87509        0.99767
H         -3.54587       -2.77891        0.92244
H         -3.49361       -1.12643        1.56727
H         -2.03043       -2.12010        1.56959
C         -2.58184       -1.33294       -0.39303
H         -3.50809       -1.04153       -0.90031
H         -2.12992       -2.11984       -1.00000
C         -1.68494       -0.11839       -0.31108
C         -2.27967        1.14036       -0.28799
H         -3.36064        1.20440       -0.39099
C         -1.55040        2.32774       -0.14367
H         -2.04636        3.29381       -0.14343
C         -0.17499        2.27376       -0.00375
C          0.44962        1.02191       -0.00925
C         -0.27389       -0.18387       -0.17630
C          0.62409       -1.33685       -0.16926
C          1.92698       -0.98522        0.01474
S          2.15715        0.73934        0.18755
C          3.13117       -1.88010        0.06474
H          3.01092       -2.65402        0.82942
H          4.03712       -1.31555        0.29946
H          3.28650       -2.37855       -0.89809
C          0.23046       -2.77294       -0.38700
H         -0.55051       -3.09833        0.30606
H         -0.14036       -2.93209       -1.40547
H          1.09362       -3.42781       -0.24482
O          0.51338        3.45388        0.17350
H          1.44865        3.36421       -0.07478
