12
id_257_ca.log	Energy: -974094.8896064
C         -1.60954        0.86213       -0.54374
H         -2.25593        0.50708       -1.34680
H         -1.18530        1.82300       -0.82725
C         -0.54704       -0.14846       -0.24063
C          0.74734        0.13667       -0.05603
Cl         1.35847        1.74930       -0.11123
Cl         1.94209       -1.05851        0.25018
Cl        -1.10303       -1.78803       -0.14861
N         -2.48022        1.10166        0.65085
H         -2.97620        0.25256        0.94986
H         -3.19247        1.80884        0.42692
H         -1.93108        1.44788        1.44803
