22
id_217_ca.log	Energy: -545201.8384322
C          1.72752       -1.61272        0.12444
H          2.45479       -2.41438        0.06833
C          0.37589       -1.88670        0.29338
H          0.04861       -2.91922        0.35624
C         -0.58149       -0.87161        0.38224
C         -0.10959        0.44496        0.27043
C          1.22504        0.76548        0.07736
H          1.54743        1.79636       -0.00912
C          2.12372       -0.28625        0.01944
N          3.54446        0.02249       -0.16607
O          4.32881       -0.90990       -0.22886
O          3.87208        1.19502       -0.24915
N         -1.03055        1.58505        0.35604
O         -2.02996        1.46752        1.04724
O         -0.74486        2.59616       -0.26124
C         -2.02646       -1.25180        0.55737
H         -2.38922       -0.98954        1.55543
H         -2.12865       -2.33738        0.45309
C         -2.94418       -0.62319       -0.46357
O         -2.58346       -0.01945       -1.45469
O         -4.22783       -0.83156       -0.16113
H         -4.79128       -0.43986       -0.85760
