24
id_2413_cb.log	Energy: -384846.5913206
C         -4.11267       -1.15026        0.02631
H         -3.58505       -2.06538       -0.26270
H         -5.11404       -1.15298       -0.40390
H         -4.18124       -1.09085        1.11768
O         -3.46298       -0.00129       -0.50425
C         -2.16824        0.22553       -0.11339
C         -1.55321        1.35938       -0.65861
H         -2.11695        1.98595       -1.34422
C         -0.24309        1.66719       -0.31770
H          0.22489        2.55045       -0.74815
C          0.48702        0.86447        0.57205
C         -0.14510       -0.25977        1.10265
H          0.39717       -0.90011        1.79528
C         -1.46450       -0.58972        0.77258
H         -1.92027       -1.47078        1.21032
C          1.93006        1.17705        0.88619
H          2.05816        2.25695        1.01991
H          2.21733        0.69223        1.82530
C          2.87266        0.70503       -0.23539
H          3.90766        0.93421        0.04346
H          2.63949        1.23362       -1.16456
C          2.74710       -0.80191       -0.45650
O          3.07134       -1.55702        0.50664
O          2.31321       -1.21111       -1.57207
