21
id_219_cb.log	Energy: -206543.2414366
C          1.90545        1.38809       -0.14929
H          1.77550        2.47126       -0.10622
H          2.41268        1.13730       -1.08764
H          2.57046        1.09109        0.66893
C          0.56650        0.70723       -0.05962
C         -0.55441        1.41196        0.17900
H         -0.45804        2.48744        0.30012
C         -1.93339        0.81015        0.22488
H         -2.30793        0.77603        1.25754
H         -2.63790        1.44078       -0.33049
C         -1.90532       -0.59830       -0.36718
H         -1.86125       -0.54221       -1.46088
H         -2.80782       -1.15704       -0.10217
C         -0.67875       -1.34332        0.13626
H         -0.66488       -2.36978       -0.24264
H         -0.71181       -1.39898        1.23887
N          0.55656       -0.68759       -0.29536
C          1.72026       -1.41718        0.19817
H          2.63994       -1.04083       -0.25163
H          1.61586       -2.46791       -0.08398
H          1.81721       -1.36575        1.29430
