33
id_2292_ca.log	Energy: -682124.8339099
C         -4.73191       -1.57068       -0.00004
H         -4.81754       -2.19986        0.88937
H         -5.58135       -0.87841       -0.00010
H         -4.81746       -2.19992       -0.88940
C         -3.43751       -0.80571       -0.00001
C         -2.83195       -0.43217       -1.20520
H         -3.29331       -0.71769       -2.14607
C         -1.65152        0.30096       -1.21744
H         -1.19101        0.59598       -2.15512
C         -1.07616        0.66372        0.00003
C         -1.65151        0.30088        1.21747
H         -1.19100        0.59584        2.15517
C         -2.83195       -0.43225        1.20520
H         -3.29330       -0.71783        2.14605
S          0.46150        1.53545        0.00005
O          0.58700        2.25902        1.26226
O          0.58699        2.25911       -1.26211
N          1.68227        0.38874        0.00001
C          1.73101       -0.44278        1.21605
H          1.69107        0.19834        2.09693
H          0.88689       -1.14810        1.24271
C          3.04023       -1.20573        1.23903
H          3.89786       -0.53194        1.24535
H          3.08158       -1.87546        2.09719
N          3.15348       -2.03929       -0.00008
H          2.41260       -2.75324       -0.00009
C          3.04020       -1.20566       -1.23914
H          3.08153       -1.87534       -2.09734
H          3.89784       -0.53187       -1.24544
C          1.73099       -0.44271       -1.21609
H          0.88686       -1.14803       -1.24277
H          1.69102        0.19846       -2.09693
H          4.05185       -2.53651       -0.00010
