59
id_2110_cb.log	Energy: -1967205.5155002
C          1.57699       -2.32829        1.61173
H          2.45807       -2.69702        2.12594
C          0.43962       -1.97915        2.33755
H          0.42783       -2.06798        3.41899
C         -0.68707       -1.53507        1.65152
C         -0.70343       -1.41087        0.26484
H         -1.59859       -1.06822       -0.24656
C          0.43921       -1.75153       -0.45503
H          0.43983       -1.66836       -1.53829
C          1.56527       -2.21904        0.22288
S          3.00959       -2.69328       -0.73305
O          2.48991       -3.22948       -2.01110
O          3.74935       -3.68337        0.08278
N          3.81015       -1.35954       -1.09447
C          4.29679       -0.62125       -0.05123
O          4.38206       -1.00520        1.13553
N          4.74538        0.64363       -0.40777
C          4.12847        1.28560       -1.57788
H          4.15882        0.60652       -2.42808
H          4.73952        2.16065       -1.82456
C          2.69533        1.70176       -1.25192
H          2.24225        2.18391       -2.12591
H          2.12519        0.78653       -1.04581
C          2.65005        2.64068       -0.03275
H          3.13757        3.58187       -0.32555
C          3.45352        2.06340        1.13955
H          3.54672        2.82123        1.92571
H          2.93203        1.20098        1.57237
C          4.84457        1.60456        0.69898
H          5.43105        2.45470        0.33506
H          5.38921        1.15335        1.52781
N          1.28822        3.01333        0.40438
C          0.41573        1.85005        0.60803
H          0.91349        1.12191        1.25636
H          0.20156        1.33806       -0.34610
C         -0.90705        2.26971        1.23285
H         -1.51943        1.38274        1.42192
H         -0.73599        2.75752        2.19965
C         -1.63057        3.26239        0.32675
H         -2.55435        3.63001        0.78773
C         -0.70147        4.42363       -0.00493
H         -0.54944        5.00539        0.91114
H         -1.17722        5.07907       -0.74236
C          0.64518        3.93591       -0.53863
H          0.49255        3.46202       -1.52330
H          1.30819        4.79374       -0.69035
O         -1.95537        2.66059       -0.94765
C         -2.73271        1.54620       -0.99358
C         -2.61087        0.75419       -2.14141
H         -1.90507        1.04416       -2.91358
C         -3.37718       -0.39317       -2.27853
H         -3.27846       -1.01343       -3.16375
C         -4.26853       -0.77051       -1.27326
C         -4.39489        0.02865       -0.13849
C         -3.63598        1.18851        0.00849
H         -3.75861        1.78941        0.90286
Cl        -5.50832       -0.38907        1.13010
Cl        -5.19538       -2.23041       -1.46325
Cl        -2.13511       -1.14797        2.54921
