18
id_2322_ca.log	Energy: -307258.1337484
C          0.52037        1.70425        0.00000
H          0.32033        2.77071        0.00000
C          1.78727        1.23005        0.00000
H          2.65264        1.88236        0.00000
C          2.02439       -0.18784       -0.00000
N          0.96614       -1.01676        0.00000
C         -0.33983       -0.57598        0.00000
C         -0.59557        0.80236        0.00000
N         -1.86152        1.26258       -0.00000
C         -2.81626        0.34964       -0.00000
H         -3.84511        0.69284       -0.00000
C         -2.53512       -1.03031       -0.00000
H         -3.34573       -1.75164       -0.00000
N         -1.29942       -1.50444        0.00000
N          3.24743       -0.68208        0.00000
H          3.42122       -1.68216       -0.00001
H          4.04240       -0.05322       -0.00002
H          1.11435       -2.02694        0.00001
