45
id_20_cb.log	Energy: -531876.5928443
C          3.66179       -2.36535        1.49243
H          3.44732       -1.58254        2.24171
H          4.68131       -2.72444        1.65813
H          2.97137       -3.19641        1.66236
N          3.52261       -1.87293        0.12651
C          4.44601       -0.75813       -0.05969
H          5.46282       -1.08204        0.17845
H          4.19712        0.09939        0.59159
H          4.43683       -0.41550       -1.09683
C          2.14274       -1.41656       -0.05823
H          1.47892       -2.26473        0.15303
H          1.90019       -0.63038        0.68274
C          1.85106       -0.89231       -1.46043
H          2.29387       -1.56404       -2.20488
H          2.31213        0.08973       -1.60258
C          0.34886       -0.82785       -1.74034
H         -0.03878       -1.85035       -1.76842
H          0.16742       -0.39474       -2.73494
N         -0.39492       -0.14833       -0.67674
C         -0.08556        1.20742       -0.38524
C          0.53172        1.99049       -1.37773
H          0.72767        1.55568       -2.35122
C          0.88614        3.31459       -1.15472
H          1.36335        3.88128       -1.94847
C          0.61371        3.90460        0.07571
H          0.88056        4.93836        0.27056
C         -0.00619        3.14148        1.05683
H         -0.21995        3.58887        2.02538
C         -0.36032        1.79993        0.86829
C         -1.01164        1.12502        2.06494
H         -0.39727        1.34782        2.94489
H         -1.98174        1.60623        2.24541
C         -1.23857       -0.38473        1.98612
H         -1.65405       -0.72498        2.93934
H         -0.27875       -0.89446        1.83821
C         -2.17428       -0.74344        0.86873
C         -1.72471       -0.60255       -0.45228
C         -2.55884       -0.95651       -1.51663
H         -2.20049       -0.85394       -2.53687
C         -3.84522       -1.43173       -1.27170
H         -4.48565       -1.70213       -2.10572
C         -4.30885       -1.54698        0.03681
H         -5.31213       -1.91252        0.23233
C         -3.47225       -1.20061        1.09647
H         -3.81949       -1.30601        2.12138
