17
id_285_cb.log	Energy: -511886.8922407
C         -0.68614        2.18259       -0.00001
H         -0.16172        2.57010        0.88277
H         -1.69573        2.59661       -0.00005
H         -0.16165        2.57010       -0.88275
C         -0.73204        0.68151       -0.00001
C         -1.98374       -0.02524       -0.00001
N         -1.96170       -1.39810       -0.00001
C         -0.77966       -1.99582        0.00000
H         -0.79282       -3.08466        0.00001
N          0.43020       -1.43750        0.00001
C          0.41912       -0.08790        0.00000
S          1.98005        0.76443        0.00001
C          3.16777       -0.60105        0.00002
H          3.06213       -1.21649       -0.89417
H          3.06213       -1.21649        0.89421
H          4.15456       -0.13177        0.00002
O         -3.10739        0.57581       -0.00002
