22
id_2335_ca.log	Energy: -253881.0061044
C          3.09216       -0.18123       -0.25307
H          4.15404       -0.33376       -0.41875
C          2.59120        1.10150       -0.04382
H          3.26076        1.95627       -0.04512
C          1.22780        1.29392        0.16801
H          0.83949        2.29580        0.33074
C          0.34614        0.20912        0.17602
C          0.85764       -1.07711       -0.03243
H          0.19437       -1.93904       -0.02666
C          2.21969       -1.26905       -0.24686
H          2.60052       -2.27298       -0.40787
C         -1.10559        0.45221        0.40835
C         -1.97540       -0.54055        1.15126
H         -2.74678       -0.12981        1.79520
H         -1.52392       -1.46736        1.48963
C         -2.13252       -0.36544       -0.31368
N         -3.34040        0.32727       -0.80003
H         -3.17729        0.76437       -1.71506
H         -3.63178        1.06831       -0.14938
H         -1.37114        1.49558        0.56001
H         -1.81462       -1.14239       -0.99853
H         -4.12758       -0.32606       -0.89673
