33
id_2223_ca.log	Energy: -281578.9638982
C          3.69303       -0.24190       -0.32955
H          3.70983       -0.56584       -1.37692
H          4.24219       -0.98182        0.26172
H          4.22616        0.71222       -0.26247
C          2.25549       -0.10910        0.16085
C          1.50873       -1.44104        0.08700
H          1.53795       -1.79822       -0.95281
H          2.02313       -2.19194        0.69761
C          0.05056       -1.31614        0.53294
H          0.00813       -1.07682        1.60640
H         -0.44399       -2.28415        0.41800
C         -0.71983       -0.25638       -0.27074
C          0.03497        1.08178       -0.27126
C          1.50236        0.93775       -0.66383
H          1.51976        0.63718       -1.71923
H          1.99596        1.91558       -0.60102
N         -0.04305        1.73003        1.09348
H          0.28400        1.10562        1.84043
H         -1.00267        2.01202        1.32553
C         -2.19835       -0.13036        0.15674
H         -2.23286        0.14184        1.22262
C         -2.93630        0.94412       -0.64705
H         -2.56273        1.95607       -0.45975
H         -4.00085        0.94073       -0.39360
H         -2.84553        0.74559       -1.72205
C         -2.92995       -1.46606        0.00023
H         -2.54320       -2.23685        0.67130
H         -2.84032       -1.83250       -1.02988
H         -3.99473       -1.34059        0.22031
H          2.27962        0.21463        1.21260
H         -0.71453       -0.56901       -1.32633
H         -0.44895        1.79517       -0.94006
H          0.54080        2.57478        1.12132
