29
id_2258_ca.log	Energy: -374165.3280232
N         -0.06430        2.39611        0.48128
H         -0.92208        2.94581        0.49349
C         -0.06379        1.13313        0.18375
C         -1.33318        0.44194       -0.05185
C         -2.50504        0.84744        0.60423
H         -2.47796        1.65146        1.33440
C         -3.69845        0.18512        0.35130
H         -4.60189        0.48628        0.87046
C         -3.73091       -0.87038       -0.56068
H         -4.66645       -1.38471       -0.75630
C         -2.56816       -1.27313       -1.21686
H         -2.59759       -2.09241       -1.92705
C         -1.36606       -0.62732       -0.95798
H         -0.45731       -0.93502       -1.46639
C          1.23659        0.45477        0.04041
C          2.21278        1.09517       -0.73750
H          1.98041        2.04314       -1.21392
C          3.45120        0.50095       -0.93545
H          4.19611        0.99088       -1.55292
C          3.72098       -0.72604       -0.33402
H          4.68735       -1.19992       -0.47485
C          2.75902       -1.34743        0.45791
H          2.98961       -2.29113        0.94387
C          1.49681       -0.78548        0.65880
C          0.51065       -1.49550        1.55245
H         -0.15819       -2.13892        0.97099
H          1.05032       -2.13045        2.25899
H         -0.11041       -0.79944        2.12211
H          0.80359        2.88206        0.70095
