73
id_2105_ca.log	Energy: -1006866.5013125
C          9.38653       -1.08420        0.00473
H          9.44337       -0.82093        1.06131
H          9.79112       -2.08182       -0.16348
H          9.91387       -0.34869       -0.60211
N          7.95419       -1.08389       -0.39408
C          7.33189        0.26702       -0.22743
H          7.42898        0.52100        0.83072
H          7.90564        0.97111       -0.83130
C          5.88094        0.24064       -0.66565
H          5.82699        0.04537       -1.74962
H          5.47461        1.23707       -0.48127
N          5.12555       -0.74743        0.09775
C          5.71757       -2.07938       -0.08190
H          5.18145       -2.81688        0.51416
H          5.65697       -2.38897       -1.13798
C          7.16295       -2.09905        0.37059
H          7.61545       -3.07478        0.18804
H          7.26032       -1.83465        1.42621
C          3.72169       -0.71420       -0.08285
C          2.90941       -1.59401        0.65550
H          3.36131       -2.28445        1.36038
C          1.53160       -1.57260        0.52342
H          0.92825       -2.25648        1.10997
C          0.89918       -0.66687       -0.33980
C          1.70482        0.21205       -1.06590
H          1.24396        0.91248       -1.75400
C          3.09209        0.18969       -0.94919
H          3.67141        0.87677       -1.55394
C         -0.58266       -0.63025       -0.45735
N         -1.26588       -1.60822        0.10214
C         -2.62671       -1.53638       -0.01524
C         -3.40561       -2.58350        0.54097
H         -2.88688       -3.39605        1.03480
C         -4.77487       -2.55763        0.44446
C         -5.43141       -1.46927       -0.21740
C         -4.69029       -0.44691       -0.75424
H         -5.19676        0.36551       -1.26082
C         -3.27579       -0.46695       -0.66020
C         -2.41108        0.55691       -1.18944
N         -1.09215        0.43255       -1.11980
N         -2.92965        1.64622       -1.80434
H         -3.92323        1.80198       -1.69093
C         -2.15120        2.84122       -2.09643
H         -1.14120        2.53225       -2.36539
H         -2.59161        3.32090       -2.97449
C         -2.14613        3.86011       -0.95802
H         -1.64675        4.77696       -1.32395
H         -3.18432        4.12985       -0.73022
N         -1.52897        3.37729        0.27170
C         -0.08214        3.22815        0.11174
H          0.38353        4.19545       -0.15587
H          0.12571        2.50779       -0.68062
C          0.53218        2.72347        1.40329
H          0.11922        1.73201        1.64776
H          1.61791        2.63834        1.30660
O          0.28063        3.62613        2.47347
C         -1.11850        3.81460        2.64114
H         -1.58454        2.86399        2.93963
H         -1.24534        4.53934        3.44886
C         -1.76613        4.32201        1.36331
H         -1.35413        5.31931        1.12085
H         -2.84377        4.43231        1.52298
O         -6.78693       -1.56314       -0.25223
C         -7.48514       -0.50933       -0.90231
H         -7.19509       -0.44096       -1.95611
H         -7.29636        0.44822       -0.40572
H         -8.54270       -0.76018       -0.82760
O         -5.60950       -3.50518        0.93298
C         -5.00838       -4.61355        1.59280
H         -4.44236       -4.28331        2.46949
H         -4.34816       -5.15921        0.91129
H         -5.83063       -5.25638        1.90467
H          7.89975       -1.33326       -1.39131
