20
id_288_ca.log	Energy: -432036.9184187
C          2.47078       -1.21014       -0.01401
H          2.27824       -2.28365       -0.01197
H          3.02628       -0.93275        0.88665
H          3.07874       -0.94200       -0.88246
C          1.19833       -0.44969       -0.05476
N          0.03165       -1.00205       -0.13454
C         -1.16742       -0.13395       -0.00123
C         -0.64655        1.26607       -0.36917
H         -1.14381        2.04288        0.21262
H         -0.75866        1.47197       -1.43545
S          1.14847        1.27585        0.01328
C         -2.25043       -0.59260       -0.96534
H         -1.88294       -0.59230       -1.99452
H         -3.10040        0.09116       -0.89299
H         -2.59118       -1.59838       -0.70269
C         -1.63300       -0.20747        1.45020
H         -0.85281        0.14462        2.13245
H         -1.89425       -1.23676        1.71102
H         -2.51880        0.42163        1.57173
H         -0.06776       -2.01900       -0.13916
