33
id_2362_cb.log	Energy: -398794.1756900
C         -1.94639        2.73610       -0.14512
H         -1.25492        3.49698        0.20572
H         -2.28864        2.81206       -1.17488
C         -2.36389        1.75769        0.65341
H         -2.00534        1.69645        1.67988
C         -3.30480        0.66344        0.21531
H         -3.70977        0.88981       -0.77549
H         -4.12477        0.53582        0.92552
C         -2.55708       -0.64889        0.14186
O         -2.70464       -1.58397        0.90235
O         -1.67453       -0.64348       -0.86344
C         -0.79552       -1.78146       -0.97355
H         -0.42255       -1.74874       -1.99815
H         -1.38664       -2.68852       -0.83343
C          0.34649       -1.74357        0.02925
H          0.73213       -2.76552        0.11175
H         -0.05949       -1.47384        1.02163
N          1.46347       -0.87534       -0.33803
C          2.51998       -1.05235        0.66624
H          2.80116       -2.11051        0.68323
H          2.13360       -0.80256        1.67392
C          3.73740       -0.18466        0.37400
H          4.17143       -0.48530       -0.58767
H          4.49514       -0.35912        1.14507
C          3.33883        1.28870        0.32069
H          3.00102        1.60563        1.31679
H          4.19504        1.91641        0.05283
C          2.19766        1.46969       -0.67708
H          2.56024        1.25921       -1.69108
H          1.82751        2.50072       -0.67011
C          1.03940        0.53019       -0.36069
H          0.25656        0.65071       -1.11310
H          0.59483        0.80796        0.61655
