14
id_2386_cb.log	Energy: -757162.8988179
C          1.72367       -1.34535       -0.00321
H          2.48333       -2.12120       -0.00136
C          0.38239       -1.69220       -0.00000
H          0.09041       -2.73707        0.00616
C         -0.60643       -0.71079       -0.00144
C         -0.22379        0.62997       -0.00381
C          1.11757        0.98908       -0.00651
H          1.39328        2.03901       -0.00668
C          2.11307        0.00316       -0.00847
N          3.45171        0.35608       -0.07704
H          3.65984        1.27948        0.28704
H          4.08456       -0.34411        0.29396
Cl        -1.41810        1.89878        0.00179
Cl        -2.28262       -1.18418        0.00414
