12
id_2295_cb.log	Energy: -1813975.4217440
C         -0.42598       -1.18432        0.00090
H          0.07901       -2.14698        0.00560
C          0.29847        0.00000       -0.00172
C         -0.42599        1.18432        0.00090
H          0.07901        2.14698        0.00560
N         -1.75372        1.19983        0.00015
C         -2.36648       -0.00000       -0.00358
N         -1.75371       -1.19983        0.00015
N         -3.72084        0.00000       -0.05589
H         -4.19272       -0.86118        0.18560
H         -4.19272        0.86118        0.18560
Br         2.18129        0.00000        0.00079
