17
id_2040_cb.log	Energy: -288333.7186592
C         -2.89687       -1.09680        0.00001
H         -2.66916       -1.70286       -0.88293
H         -3.95820       -0.84346       -0.00001
H         -2.66920       -1.70286        0.88296
C         -2.07900        0.17368        0.00003
O         -2.66323        1.26889        0.00007
C         -0.62049        0.08143        0.00001
C          0.05305       -1.15939       -0.00001
H         -0.51763       -2.08475       -0.00001
C          1.43132       -1.23151       -0.00003
H          1.93099       -2.19745       -0.00004
C          2.24748       -0.05410       -0.00003
C          1.54611        1.19741       -0.00001
H          2.13540        2.11163       -0.00002
C          0.16879        1.25326        0.00001
H         -0.32795        2.22054        0.00002
O          3.53491       -0.11697       -0.00005
