19
id_2389_cb.log	Energy: -333338.3843330
C          3.63479       -0.08818        0.00461
H          4.00264        0.93993        0.00740
H          4.03529       -0.60099       -0.87606
H          4.03048       -0.60413        0.88562
C          2.13332       -0.13725        0.00025
C          1.47558       -1.39319       -0.00232
H          2.05910       -2.30806       -0.00209
C          0.10737       -1.44342       -0.00304
H         -0.41693       -2.39077       -0.00285
C         -0.65560       -0.25778       -0.00371
C         -0.03347        1.01721       -0.00311
C          1.38727        1.01943        0.00021
H          1.88476        1.98590        0.00254
N         -0.67636        2.20203       -0.03070
H         -1.67557        2.24528        0.09710
H         -0.12940        3.04376        0.09168
N         -2.07531       -0.39627        0.00140
O         -2.56975       -1.52200        0.00547
O         -2.78328        0.61549        0.00008
