24
id_221_cb.log	Energy: -384846.8019197
C          0.47559        2.64868       -0.34847
H          0.39955        2.68738        0.74396
H         -0.27755        3.30536       -0.79625
H          1.46967        2.97096       -0.66015
O          0.33549        1.31270       -0.81257
C         -0.75157        0.60262       -0.38696
C         -1.88185        1.19802        0.17594
H         -1.93204        2.27330        0.30922
C         -2.95802        0.39801        0.56922
H         -3.83496        0.86674        1.00675
C         -2.90850       -0.98244        0.40040
H         -3.74510       -1.60520        0.70257
C         -1.76690       -1.56203       -0.16026
H         -1.71432       -2.64140       -0.28902
C         -0.67417       -0.79210       -0.55630
C          0.58014       -1.43853       -1.09075
H          0.31434       -2.40230       -1.53675
H          1.02677       -0.82481       -1.87981
C          1.63216       -1.69758        0.00938
H          2.45974       -2.26325       -0.43032
H          1.17815       -2.30045        0.80217
C          2.18553       -0.40220        0.60310
O          1.68370        0.01888        1.68599
O          3.11348        0.18078       -0.03144
