17
id_2259_cb.log	Energy: -493432.0575147
C         -2.38817       -0.86224        0.02818
H         -3.28488       -1.47252        0.06154
C         -2.46863        0.51319        0.22889
H         -3.42520        0.98811        0.42114
C         -1.31405        1.29057        0.18240
H         -1.35804        2.36379        0.33470
C         -0.09390        0.67246       -0.06398
C          0.02542       -0.70454       -0.27180
C         -1.15297       -1.45540       -0.21873
H         -1.08802       -2.52862       -0.37849
C          1.35828       -1.38303       -0.49817
H          1.93026       -0.83975       -1.25528
H          1.16951       -2.38313       -0.89601
N          2.19660       -1.51770        0.69886
H          1.63378       -1.96354        1.42303
H          2.39762       -0.58423        1.05671
Cl         1.34428        1.68339       -0.11647
