21
id_251_cb.log	Energy: -541976.2891523
C         -0.01928       -0.99123        0.10845
H         -0.63757       -1.88499        0.11109
C          1.35659       -1.13706       -0.03619
H          1.79804       -2.12210       -0.14543
C          2.16007       -0.00241       -0.03644
C          1.61365        1.26739        0.10428
H          2.25281        2.14412        0.10416
C          0.23507        1.39416        0.24504
H         -0.19698        2.38497        0.35518
C         -0.60514        0.27409        0.24986
C         -2.07184        0.45217        0.37977
C         -2.93804       -0.60581        1.03742
H         -3.76227       -0.24550        1.64698
H         -2.44723       -1.49917        1.41223
C         -3.03514       -0.39898       -0.42856
N         -4.25134        0.13195       -0.99382
H         -4.00877        0.72734       -1.78521
H         -4.68011        0.75202       -0.30718
Cl         3.89526       -0.17788       -0.21504
H         -2.39167        1.47946        0.53560
H         -2.56192       -1.14984       -1.05680
