29
id_2382_ca.log	Energy: -327099.3911244
C         -0.79631       -1.08966       -0.18534
H         -0.15673       -1.94911       -0.36676
C         -2.17654       -1.24259       -0.24194
H         -2.62700       -2.20614       -0.46176
C         -2.97377       -0.12799       -0.02373
C         -2.44010        1.12024        0.25089
H         -3.09177        1.97280        0.41739
C         -1.05534        1.25315        0.30549
H         -0.62183        2.22515        0.51947
C         -0.21704        0.15685        0.08523
C          1.27022        0.28448        0.14564
C          2.01634       -0.51428        1.21465
H          1.92658       -0.07015        2.21180
H          1.58557       -1.52195        1.26005
C          3.47214       -0.57889        0.72244
H          4.02486        0.29988        1.06769
H          3.99796       -1.45949        1.09971
C          3.36828       -0.56866       -0.81348
H          3.21731       -1.58638       -1.19208
H          4.27075       -0.16881       -1.28787
C          2.12580        0.25533       -1.10288
C          1.94343        1.53859       -0.33645
H          1.30822        2.28935       -0.79642
H          2.77677        1.94207        0.23253
N         -4.43592       -0.27555       -0.07167
H         -4.88063        0.53349       -0.52504
H         -4.71236       -1.11601       -0.59519
H          1.65084        0.17984       -2.07655
H         -4.83975       -0.35514        0.87148
