19
id_2214_cb.log	Energy: -158746.1930822
C          1.21733       -1.46918       -0.50942
H          1.78040       -2.36577       -0.23362
H          1.85325       -0.87316       -1.17353
H          0.34230       -1.79138       -1.08394
C          0.81275       -0.67840        0.73268
H          1.70244       -0.47364        1.34228
H          0.14795       -1.28956        1.35543
C          0.13316        0.66610        0.43039
H         -0.19012        1.08745        1.39151
C         -1.10625        0.52592       -0.45294
H         -1.55859        1.51832       -0.56042
H         -0.79401        0.21836       -1.46055
C         -2.13922       -0.45723        0.08887
H         -1.76346       -1.48553        0.07558
H         -3.05523       -0.43139       -0.50882
H         -2.40692       -0.21280        1.12323
N          1.03164        1.65640       -0.18426
H          1.32835        1.28571       -1.08836
H          1.88550        1.69534        0.37359
