21
id_2030_ca.log	Energy: -229997.8198597
C          2.65453       -1.48180        0.06510
H          3.19505       -1.41997        1.01484
H          3.38568       -1.32493       -0.73493
H          2.25120       -2.49222       -0.03650
C          1.56012       -0.44934        0.00062
C          1.84859        0.90500        0.21007
H          2.87210        1.20149        0.42616
C          0.84858        1.86954        0.14159
H          1.09158        2.91506        0.30366
C         -0.46541        1.49605       -0.13665
H         -1.25239        2.24329       -0.19362
C         -0.76957        0.15255       -0.34913
C          0.24198       -0.80953       -0.27862
H         -0.00472       -1.85608       -0.44842
C         -2.18697       -0.27001       -0.61141
H         -2.24423       -1.13223       -1.27569
H         -2.78893        0.54402       -1.01461
N         -2.84258       -0.68527        0.67613
H         -2.83768        0.08844        1.35099
H         -2.34330       -1.47546        1.10150
H         -3.81738       -0.96930        0.52438
