23
id_2281_cb.log	Energy: -369326.5901520
C         -4.50497       -0.18260        0.00001
H         -5.58098       -0.32560        0.00002
C         -3.65597       -1.29364        0.00005
H         -4.07475       -2.29497        0.00008
C         -2.27859       -1.12438        0.00003
H         -1.61134       -1.97870        0.00006
C         -1.74787        0.17140       -0.00002
C         -2.59277        1.28180       -0.00006
H         -2.15207        2.27391       -0.00010
C         -3.97350        1.10471       -0.00004
H         -4.63057        1.96821       -0.00007
N         -0.35569        0.47003       -0.00004
N          0.39504       -0.52404        0.00003
C          1.78971       -0.20014        0.00002
C          2.28260        1.10613        0.00007
H          1.59975        1.94639        0.00012
C          3.65897        1.28290        0.00005
H          4.08253        2.28209        0.00009
C          4.48289        0.16014       -0.00001
H          5.56322        0.25124       -0.00003
C          3.88631       -1.09656       -0.00006
H          4.49932       -1.99341       -0.00011
N          2.56408       -1.28706       -0.00004
