25
id_2200_ca.log	Energy: -254781.5934812
C          2.94455       -0.63735        1.07974
H          3.71274       -1.30425        0.68625
H          2.32639       -1.17965        1.80441
H          3.40275        0.20337        1.60903
C          2.05995       -0.14050       -0.03004
O          2.10379       -0.61753       -1.15298
C          1.11743        0.99189        0.31562
H          0.68457        0.80024        1.30635
H          1.74697        1.88113        0.45230
C          0.05853        1.27501       -0.74545
H          0.55086        1.45079       -1.70681
H         -0.47655        2.19460       -0.49395
C         -0.92523        0.13881       -0.98360
H         -0.41757       -0.74676       -1.36898
H         -1.70518        0.43777       -1.68782
N         -1.64661       -0.30930        0.25847
C         -2.56914       -1.43678       -0.05904
H         -1.99669       -2.23069       -0.53767
H         -3.34048       -1.06071       -0.73216
H         -3.01314       -1.79227        0.87008
C         -2.38035        0.80072        0.92908
H         -3.05026        1.25180        0.19569
H         -1.66640        1.53449        1.30039
H         -2.94849        0.38245        1.75930
H         -0.94802       -0.66767        0.92038
