30
id_266_ca.log	Energy: -420852.4579550
C          3.77650       -1.70173        0.44636
H          3.68659       -2.33344       -0.44347
H          3.37220       -2.23161        1.31517
H          4.82480       -1.46012        0.61960
O          3.11544       -0.45780        0.25612
C          1.77483       -0.50693        0.02119
C          1.01696       -1.66402       -0.04709
H          1.48273       -2.63303        0.08777
C         -0.36027       -1.59247       -0.29557
H         -0.92245       -2.51724       -0.36424
C         -0.98476       -0.36793       -0.47202
C         -0.21541        0.80926       -0.41077
H         -0.68742        1.77284       -0.56956
C          1.14710        0.74720       -0.16750
O          1.97455        1.82604       -0.09072
C          1.38403        3.10522       -0.27664
H          0.62200        3.29970        0.48536
H          0.93766        3.19008       -1.27292
H          2.19485        3.82620       -0.17642
C         -2.47852       -0.27104       -0.74923
C         -3.18369        0.74670        0.14667
H         -4.25514        0.73264       -0.05020
H         -2.80163        1.75567       -0.00190
N         -3.00032        0.41670        1.59365
H         -3.48364        1.09934        2.18827
H         -2.00637        0.41997        1.85617
O         -3.13394       -1.52428       -0.68575
H         -2.85605       -1.99138        0.11946
H         -2.63184        0.08723       -1.77297
H         -3.38301       -0.51093        1.81459
