29
id_2127_cb.log	Energy: -992499.5977791
C         -0.03448        2.60125       -0.18286
H         -0.20649        2.53388        0.89748
H          0.04261        1.58064       -0.57787
H         -0.91804        3.06095       -0.63897
C          1.21973        3.41773       -0.49486
H          1.09354        4.44544       -0.13236
H          1.35570        3.48108       -1.58260
C          2.50183        2.85861        0.12555
H          2.42100        2.82585        1.21431
H          3.34443        3.51036       -0.12187
N          2.82364        1.51175       -0.33867
H          2.93188        1.42374       -1.34407
C          2.22874        0.42056        0.24799
O          1.79216        0.48063        1.41626
N          2.21504       -0.68020       -0.57096
S          1.29851       -1.90985       -0.11592
O          1.61316       -2.48319        1.21262
O          1.32260       -2.88901       -1.22503
C         -0.37393       -1.27470       -0.03112
C         -1.04613       -1.03073       -1.22834
H         -0.59661       -1.30122       -2.17936
C         -2.29697       -0.42235       -1.20153
H         -2.83384       -0.22147       -2.12290
C         -2.84387       -0.06764        0.02961
C         -2.18653       -0.32083        1.22925
H         -2.63763       -0.04123        2.17571
C         -0.93420       -0.93123        1.19528
H         -0.39832       -1.12638        2.11801
Cl        -4.40433        0.71727        0.06776
