17
id_2201_ca.log	Energy: -134383.5723022
C         -0.64394        1.45221        0.12629
H          0.20889        2.07274       -0.16939
H         -0.73464        1.49022        1.21804
H         -1.54076        1.90697       -0.30464
C         -0.51099        0.00499       -0.34644
H         -0.37208       -0.00779       -1.43558
C         -1.76592       -0.79498       -0.00086
H         -2.64562       -0.34203       -0.46676
H         -1.92532       -0.80699        1.08342
H         -1.68875       -1.83029       -0.34727
C          0.68490       -0.69607        0.28254
H          0.76162       -1.73109       -0.05282
H          0.63372       -0.67423        1.37332
N          1.97562       -0.03594       -0.09815
H          2.04409        0.91260        0.28617
H          2.06616        0.03337       -1.11866
H          2.77912       -0.56882        0.25205
