22
id_2202_cb.log	Energy: -183395.1798661
C          2.40298       -0.86720        0.40876
H          3.32736       -0.34279        0.67101
H          2.57520       -1.40244       -0.53285
H          2.20247       -1.61079        1.18775
C          1.24109        0.11510        0.26139
H          1.13355        0.65158        1.21307
C          1.53104        1.12966       -0.84132
H          0.75313        1.89605       -0.90342
H          1.58940        0.62786       -1.81522
H          2.48830        1.63135       -0.66392
C         -0.04069       -0.67476       -0.00584
H         -0.22727       -1.34379        0.85813
H          0.12747       -1.32281       -0.87677
N         -1.23092        0.13210       -0.28196
C         -2.35754       -0.76793       -0.49651
H         -3.25792       -0.19183       -0.72837
H         -2.56798       -1.39212        0.39047
H         -2.14805       -1.43456       -1.33820
C         -1.53118        0.99901        0.85112
H         -0.75287        1.75580        0.97727
H         -1.62284        0.43328        1.79628
H         -2.47768        1.51726        0.67298
