17
id_2045_ca.log	Energy: -449434.1639887
C         -0.89060       -1.38617       -0.00001
H         -1.49009       -2.28723       -0.00003
C          0.48860       -1.44028       -0.00002
H          1.00220       -2.39404       -0.00003
C          1.23874       -0.26024       -0.00000
C          0.62973        1.01030        0.00001
C         -0.77138        1.05934        0.00001
H         -1.26331        2.02493        0.00002
C         -1.47957       -0.12177       -0.00000
N         -2.95278       -0.03666       -0.00000
O         -3.46534        1.06902       -0.00011
O         -3.58159       -1.08087        0.00011
O          1.26625        2.18891        0.00003
H          2.23461        2.04310        0.00005
N          2.68646       -0.39193       -0.00001
O          3.17500       -1.50602       -0.00004
O          3.36666        0.63475        0.00003
