13
id_2157_ca.log	Energy: -769631.7376445
C         -0.01605        2.29431        0.00000
H         -0.02248        3.37893        0.00000
C          1.19346        1.60648       -0.00000
H          2.13943        2.13806       -0.00000
C          1.18919        0.21678        0.00000
C         -0.00161       -0.51833       -0.00000
C         -1.20217        0.20172       -0.00000
C         -1.21829        1.59044        0.00000
H         -2.16910        2.11332        0.00000
Cl        -2.70132       -0.68365       -0.00000
O         -0.05803       -1.87238        0.00000
H          0.83596       -2.25929       -0.00001
Cl         2.70210       -0.65403        0.00000
