8
id_2065_ca.log	Energy: -1008830.2557186
C          1.26354        0.46609       -0.00002
O          1.56917        1.62872       -0.00003
C         -0.21244       -0.01998       -0.00000
Cl        -0.48266       -1.00443       -1.45754
Cl        -0.48263       -1.00435        1.45760
Cl        -1.30300        1.36643       -0.00003
O          2.08593       -0.56666       -0.00002
H          3.01348       -0.25320       -0.00002
