8
id_2062_ca.log	Energy: -432082.7043691
C         -0.24891       -0.81081        0.00008
H         -0.20877       -1.44306        0.88869
H         -0.20875       -1.44327       -0.88839
C          0.94302        0.11735        0.00001
O          0.91498        1.32728        0.00004
O          2.06950       -0.60211       -0.00006
H          2.83856        0.00168       -0.00005
Cl        -1.79185        0.07318       -0.00003
