35
id_2354_ca.log	Energy: -625653.8244327
C         -4.11196       -0.00483       -2.07786
H         -5.17457       -0.13525       -2.29514
H         -3.57446       -0.88912       -2.43606
H         -3.75341        0.87496       -2.62027
C         -3.92906        0.15915       -0.57953
H         -4.44627        1.05380       -0.22382
C         -4.36801       -1.06815        0.19977
H         -3.73799       -1.92803       -0.05445
H         -5.39775       -1.30531       -0.07887
H         -4.34090       -0.90986        1.27986
N         -2.46323        0.42789       -0.32119
H         -1.92393       -0.39791       -0.62038
C         -2.12048        0.77193        1.09123
H         -2.73017        1.63555        1.36142
H         -2.39827       -0.07032        1.72273
C         -0.64341        1.12493        1.25948
C          0.31141        0.01915        0.82444
C         -0.02752       -1.33031        0.94777
H         -0.99170       -1.63324        1.34635
C          0.88373       -2.31291        0.56049
H          0.61570       -3.36072        0.65216
C          2.12954       -1.96594        0.05754
H          2.83067       -2.73963       -0.24310
C          2.48091       -0.61499       -0.05977
C          1.56976        0.37022        0.32364
H          1.82824        1.42000        0.24582
S          4.09626       -0.26147       -0.70077
C          4.15308        1.54693       -0.67878
H          3.38718        1.97608       -1.32788
H          5.13773        1.81838       -1.06458
H          4.05054        1.93396        0.33694
O         -0.35144        2.36902        0.64514
H         -0.15525        2.22349       -0.29541
H         -0.51248        1.29607        2.33403
H         -2.16687        1.20238       -0.93040
