45
id_24_ca.log	Energy: -744706.4939786
C         -1.89064        2.47616        1.07847
H         -0.81794        2.44027        0.88367
H         -2.12743        1.89050        1.97080
H         -2.18134        3.51600        1.25994
C         -2.62548        1.95807       -0.13289
O         -2.12372        1.97119       -1.26040
N         -3.88252        1.50908        0.09840
H         -4.18294        1.43479        1.06356
C         -4.67747        0.80956       -0.89644
H         -5.72933        0.92308       -0.62855
H         -4.51847        1.26583       -1.87622
C         -4.34098       -0.68097       -0.97173
C         -2.92845       -0.99033       -1.47170
H         -2.54452       -0.19507       -2.10974
H         -2.87295       -1.95080       -1.99178
N         -2.19676       -1.04831       -0.20492
C         -3.06668       -1.22454        0.84189
O         -2.81458       -1.39664        2.01591
O         -4.33715       -1.20861        0.37390
C         -0.81308       -0.87187       -0.10723
C         -0.04966       -0.88449       -1.28370
H         -0.52209       -1.05748       -2.24279
C          1.32406       -0.68638       -1.24012
H          1.89283       -0.69805       -2.16300
C          1.94915       -0.48141       -0.01922
C          1.17938       -0.46211        1.13550
C         -0.18539       -0.65487        1.12766
H         -0.72887       -0.62785        2.06129
F          1.80906       -0.24234        2.30034
N          3.38512       -0.24065        0.12170
C          4.25302       -1.08706       -0.77432
H          3.99968       -2.13181       -0.59060
H          4.02286       -0.80934       -1.80333
C          5.70696       -0.78568       -0.45689
H          6.34218       -1.36288       -1.13031
H          5.93551       -1.06778        0.58096
O          5.99545        0.58570       -0.66665
C          5.22307        1.39736        0.20065
H          5.45171        1.15534        1.24875
H          5.49406        2.43678        0.00919
C          3.73790        1.21889       -0.05858
H          3.46758        1.47339       -1.08556
H          3.13420        1.79069        0.64792
H         -5.10449       -1.21384       -1.53702
H          3.63302       -0.48661        1.09325
