15
id_2159_ca.log	Energy: -609536.0363290
C         -1.13796       -1.38103        0.00002
H         -1.73268       -2.28703        0.00002
C          0.23947       -1.43729        0.00002
H          0.75030       -2.39296        0.00002
C          0.99628       -0.25876        0.00002
C          0.37662        1.00829        0.00001
C         -1.02364        1.05624       -0.00002
H         -1.50706        2.02737       -0.00003
C         -1.74829       -0.11963       -0.00001
Cl        -3.48495       -0.03229       -0.00001
O          1.01482        2.18835        0.00005
H          1.98279        2.03700       -0.00002
N          2.43282       -0.38573       -0.00002
O          3.11696        0.64262       -0.00004
O          2.93150       -1.49876       -0.00000
