25
id_2373_ca.log	Energy: -429783.3358220
C          5.23737       -0.73589        0.17338
H          5.03575       -1.53820       -0.54378
H          5.06559       -1.09546        1.19316
H          6.26967       -0.40241        0.07102
O          4.43117        0.40469       -0.10380
C          3.07523        0.24485       -0.05688
C          2.44003       -0.95663        0.26425
H          3.00871       -1.84618        0.51000
C          1.04551       -1.00898        0.28149
H          0.56229       -1.94381        0.55412
C          0.26868        0.11272       -0.02105
C          0.92786        1.31092       -0.34120
H          0.35077        2.19496       -0.59956
C          2.31266        1.38028       -0.35711
H          2.82227        2.30494       -0.61205
C         -1.20762        0.04055       -0.00561
C         -2.00871        1.10306        0.41914
H         -1.56018        2.02838        0.77233
N         -3.34192        1.05487        0.43670
C         -3.88102       -0.08958        0.02680
N         -3.24046       -1.17456       -0.39906
C         -1.90758       -1.09462       -0.41543
H         -1.37987       -1.97128       -0.78290
O         -5.22864       -0.12250        0.05756
H         -5.53308       -0.99076       -0.26251
