54
id_26_ca.log	Energy: -1081164.6972842
C         -2.73121       -3.69138       -0.13616
H         -2.08593       -3.80862        0.73913
H         -3.44578       -2.88589        0.05818
H         -3.28778       -4.62145       -0.28255
C         -1.91004       -3.38823       -1.37323
H         -2.54589       -3.21346       -2.24213
H         -1.20468       -4.18961       -1.60120
O         -1.18619       -2.15586       -1.20382
C         -0.05640       -2.19896       -0.48367
O          0.44477       -3.24875       -0.10227
C          0.45089       -0.85070       -0.20866
C          1.70593       -0.68259        0.27269
N          2.16249        0.57184        0.58556
H          3.11408        0.64204        0.92660
C          1.46354        1.72580        0.32176
C          0.19890        1.64303       -0.17295
C         -0.51826        0.31256       -0.36696
C         -1.66994        0.15914        0.63015
C         -1.36690        0.15622        1.99686
H         -0.32731        0.27795        2.29401
C         -2.34741        0.00188        2.96955
H         -2.07493        0.00374        4.01989
C         -3.67792       -0.15609        2.58727
H         -4.45708       -0.27861        3.33255
C         -4.01226       -0.15665        1.23777
H         -5.04318       -0.27898        0.92231
C         -3.01282       -0.00076        0.27815
Cl        -3.52475       -0.02759       -1.39977
C         -0.53416        2.86481       -0.50992
O         -0.15918        4.01920       -0.35276
O         -1.73461        2.58208       -1.04453
C         -2.54408        3.70467       -1.39833
H         -2.04238        4.31596       -2.15160
H         -2.75888        4.31267       -0.51686
H         -3.46466        3.28614       -1.80260
C          2.23492        2.98393        0.60100
H          3.22966        2.73781        0.98038
H          1.71709        3.60242        1.33658
H          2.34129        3.57945       -0.30807
C          2.72411       -1.78131        0.53034
H          2.53168       -2.22860        1.50973
H          2.63804       -2.56304       -0.22733
O          4.04444       -1.26963        0.56649
C          4.58332       -1.06639       -0.73261
H          3.98152       -0.33725       -1.29320
H          4.59748       -2.00892       -1.29201
C          6.00020       -0.57462       -0.57077
H          6.45966       -0.38839       -1.54058
H          6.60287       -1.28341       -0.00321
N          6.01009        0.71206        0.19038
H          6.96584        1.06295        0.31679
H          5.59210        0.58392        1.11998
H         -0.94371        0.28376       -1.37253
H          5.46716        1.43666       -0.29635
