24
id_2349_cb.log	Energy: -878310.1167560
C         -4.01607        0.02442       -2.01894
H         -3.88055        0.70681       -2.86109
H         -5.01647        0.18519       -1.60679
H         -3.96661       -1.00771       -2.39596
N         -3.01650        0.30679       -0.99042
H         -2.09409        0.20690       -1.41556
C         -3.10313       -0.65782        0.10357
H         -4.12857       -0.64184        0.48817
H         -2.87753       -1.68982       -0.20552
C         -2.16274       -0.22423        1.23176
C         -0.70796       -0.37480        0.81435
C         -0.15386       -1.65009        0.67192
H         -0.75453       -2.52858        0.89204
C          1.16107       -1.81024        0.25946
H          1.59258       -2.79984        0.15356
C          1.94266       -0.69047       -0.01946
C          1.39666        0.58375        0.12091
C          0.07647        0.74000        0.53698
H         -0.33295        1.73761        0.65340
Cl         2.34259        2.00587       -0.21372
Cl         3.58886       -0.91611       -0.53424
O         -2.47488        1.10414        1.60841
H         -2.72008        1.54477        0.77203
H         -2.33993       -0.86326        2.10332
