17
id_245_ca.log	Energy: -309359.9890065
C          2.71539       -0.28199       -0.00000
H          3.76812       -0.54695        0.00001
C          2.34188        1.08025        0.00002
H          3.11124        1.84613        0.00004
C          1.01356        1.45047        0.00001
H          0.76099        2.50623        0.00004
C          0.01558        0.45096       -0.00002
C          0.38826       -0.90773       -0.00002
C          1.75341       -1.26795       -0.00001
H          2.02395       -2.32008       -0.00001
C         -0.66257       -1.87279        0.00000
H         -0.42447       -2.93316        0.00001
N         -1.92878       -1.56306        0.00003
N         -2.30487       -0.25386        0.00000
C         -1.40208        0.68873       -0.00003
O         -1.91954        1.93818        0.00002
H         -1.22847        2.62123       -0.00017
