20
id_2030_cb.log	Energy: -229705.1293637
C          2.61450       -1.46632        0.04908
H          3.16175       -1.40763        0.99547
H          3.34072       -1.30355       -0.75451
H          2.21623       -2.47885       -0.05426
C          1.51328       -0.43912       -0.00352
C          1.79999        0.91739        0.19676
H          2.82457        1.22135        0.39767
C          0.78998        1.87180        0.13647
H          1.02657        2.92060        0.29076
C         -0.52539        1.48553       -0.12351
H         -1.31554        2.23113       -0.17230
C         -0.83529        0.14047       -0.32552
C          0.19281       -0.80708       -0.26159
H         -0.04576       -1.85810       -0.42065
C         -2.26378       -0.30461       -0.53934
H         -2.29214       -1.10962       -1.27964
H         -2.84950        0.52722       -0.94088
N         -2.93544       -0.78958        0.67662
H         -2.86428       -0.05096        1.37728
H         -2.37120       -1.55291        1.05170
