44
id_2074_ca.log	Energy: -1069673.1485006
C         -5.41999       -1.44978        0.49329
H         -5.60381       -2.52394        0.48695
H         -6.14709       -0.94702       -0.15185
H         -5.55476       -1.06061        1.50749
C         -4.03877       -1.14101        0.02223
N         -3.69745        0.15698       -0.03657
C         -2.46251        0.39963       -0.46271
N         -1.59269       -0.54069       -0.84786
C         -2.02374       -1.78813       -0.72080
N         -3.23638       -2.15536       -0.29679
O         -1.22230       -2.79045       -1.05148
C          0.11106       -2.47677       -1.48995
H          0.08058       -1.85674       -2.38826
H          0.57202       -3.43921       -1.70508
H          0.64987       -1.96902       -0.68776
N         -2.07082        1.73597       -0.52419
C         -3.10317        2.76449       -0.31632
H         -4.01854        2.43970       -0.80344
H         -2.75665        3.68875       -0.77154
H         -3.28664        2.92359        0.74907
C         -0.75820        2.20364       -0.48738
O         -0.51066        3.37525       -0.23622
N          0.25815        1.31442       -0.78227
H          0.01072        0.31501       -0.83775
S          1.80750        1.67454       -0.22877
O          2.43719        2.58180       -1.18176
O          1.76928        2.07501        1.17697
C          2.56676        0.07142       -0.34844
C          3.28064       -0.22077       -1.50460
H          3.32319        0.49634       -2.31850
C          3.95089       -1.44144       -1.59243
H          4.50061       -1.68563       -2.49538
C          3.93374       -2.32586       -0.51768
H          4.47051       -3.26701       -0.58034
C          3.22510       -2.01511        0.64422
H          3.19515       -2.71103        1.47735
C          2.51368       -0.82229        0.73048
C          1.64619       -0.60666        1.93406
O          2.04247       -0.64729        3.08012
O          0.37981       -0.43334        1.57636
C         -0.55264       -0.13218        2.62825
H         -0.54534       -0.92940        3.37348
H         -1.52862       -0.07187        2.14762
H         -0.28726        0.82324        3.08668
