9
id_2071_ca.log	Energy: -393543.9662933
C          0.30164       -0.49023        0.74475
H          0.35000       -1.57476        0.84222
H          0.36487       -0.03000        1.73276
C         -0.99421       -0.11929        0.07763
O         -1.75540       -0.91103       -0.44326
O         -1.22054        1.19949        0.10680
H         -2.06015        1.39677       -0.35322
S          1.73116        0.01392       -0.27545
H          1.60958        1.33465       -0.05717
