12
id_2313_cb.log	Energy: -254827.7859580
C          1.20698       -0.73399       -0.00000
H          2.15160       -1.27309       -0.00000
C          1.21093        0.65950        0.00000
H          2.14205        1.22001        0.00000
C         -0.00000        1.33300        0.00000
C         -1.21094        0.65948        0.00000
H         -2.14205        1.22001        0.00000
C         -1.20697       -0.73399       -0.00000
H         -2.15158       -1.27311       -0.00000
C          0.00001       -1.48810       -0.00000
O         -0.00000       -2.80052       -0.00000
F         -0.00001        2.70388        0.00000
