47
id_202_ca.log	Energy: -522114.4719231
C         -4.55563       -2.59858        0.14227
H         -5.43655       -3.19990        0.34459
C         -3.36069       -2.85985        0.80454
H         -3.30421       -3.66794        1.52775
C         -2.22555       -2.08868        0.54424
H         -1.30364       -2.31439        1.07147
C         -2.27318       -1.04506       -0.38144
C         -3.48253       -0.78989       -1.04075
H         -3.52948        0.02500       -1.76037
C         -4.61329       -1.55700       -0.78549
H         -5.53992       -1.34490       -1.31043
C         -1.08261       -0.14908       -0.69253
H         -1.01105       -0.07280       -1.78513
C          0.25238       -0.70791       -0.17759
H          0.23022       -0.75565        0.91560
H          0.39110       -1.72829       -0.55679
C          1.40366        0.17016       -0.64531
H          1.44024        1.12220       -0.10920
H          1.32207        0.37456       -1.71653
N          2.74281       -0.47447       -0.44668
C          3.04571       -0.74490        1.00219
H          2.24681       -1.37658        1.39029
H          3.01261        0.22960        1.49927
C          4.40194       -1.41592        1.15468
H          4.57677       -1.56678        2.22365
H          4.36423       -2.40747        0.68671
C          5.51334       -0.58259        0.52145
H          6.47083       -1.10438        0.60227
H          5.60843        0.36940        1.05840
C          5.17987       -0.30884       -0.94338
H          5.17437       -1.24826       -1.50993
H          5.92222        0.34795       -1.40541
C          3.82301        0.36129       -1.07808
H          3.79508        1.32417       -0.55964
H          3.53781        0.50548       -2.12137
C         -1.31633        1.25765       -0.15891
C         -1.27934        2.36133       -1.01252
H         -1.10068        2.20790       -2.07418
C         -1.46782        3.65162       -0.51527
H         -1.43857        4.50002       -1.19240
C         -1.69270        3.84957        0.84423
H         -1.83993        4.85235        1.23326
C         -1.73009        2.75135        1.70511
H         -1.90761        2.89822        2.76630
C         -1.54453        1.46586        1.20613
H         -1.58359        0.61130        1.87884
H          2.72904       -1.38272       -0.93163
