17
id_227_ca.log	Energy: -407368.8731727
C          1.78270       -0.02543        0.64609
H          1.72049       -0.11789        1.73432
H          2.81854       -0.20993        0.34902
C          1.30153        1.31468        0.17303
H          1.82838        2.20951        0.49133
C          0.24221        1.33198       -0.63021
H         -0.19983        2.23753       -1.03686
C         -0.40299        0.00679       -0.94216
S          0.69401       -1.25966       -0.17159
C         -1.83460       -0.07351       -0.41753
H         -2.29187       -1.03935       -0.63134
H         -2.44401        0.72097       -0.85097
N         -1.86131        0.10759        1.06401
H         -1.44337        1.00675        1.33649
H         -1.32234       -0.63836        1.52449
H         -0.45290       -0.17340       -2.01984
H         -2.82120        0.07846        1.42540
