40
id_2131_ca.log	Energy: -495475.1137011
C          2.08487        3.40534       -0.27176
H          2.32027        4.46222       -0.11829
H          2.55261        3.07854       -1.20455
H          2.50765        2.83325        0.55840
C          0.58281        3.22889       -0.34274
H          0.15237        3.77592       -1.18152
H          0.08864        3.53651        0.58058
O          0.24591        1.84675       -0.60852
C          0.27221        1.01222        0.42950
O          0.52361        1.35920        1.56649
C         -0.10501       -0.41837        0.03211
C          0.39110       -1.39201        1.11682
H          0.00343       -2.38995        0.88371
H          0.00927       -1.10801        2.09972
C          1.90848       -1.43918        1.20680
H          2.24009       -2.19250        1.92280
H          2.33494       -0.47024        1.48065
N          2.51204       -1.79677       -0.11890
C          2.07825       -0.83158       -1.18188
H          2.49556        0.14099       -0.89888
H          2.54053       -1.15583       -2.11526
C          0.56326       -0.80847       -1.29500
H          0.29228       -0.11868       -2.09690
H          0.21401       -1.80685       -1.58218
C          3.99513       -1.88001       -0.03439
H          4.25772       -2.61363        0.72705
H          4.37371       -0.89406        0.23701
H          4.38082       -2.18280       -1.00741
C         -1.63637       -0.44033       -0.04203
C         -2.37373       -0.11495        1.10383
H         -1.85625        0.16124        2.01917
C         -3.76450       -0.12987        1.08303
H         -4.31796        0.12532        1.98143
C         -4.44330       -0.46851       -0.08691
H         -5.52858       -0.48164       -0.10514
C         -3.71878       -0.78511       -1.23180
H         -4.23622       -1.04586       -2.14995
C         -2.32391       -0.76850       -1.21228
H         -1.78488       -1.01550       -2.12039
H          2.15648       -2.72587       -0.38127
