21
id_2209_cb.log	Energy: -253117.4767987
C         -2.46585       -0.53450       -0.07309
H         -2.44368       -1.17457        0.81585
H         -3.28856       -0.87714       -0.70722
H         -2.69613        0.48625        0.24783
C         -1.14361       -0.58907       -0.83275
H         -1.17461        0.11622       -1.67193
H         -1.00504       -1.58794       -1.26641
C          0.09236       -0.28782        0.02729
C          1.32628       -0.22983       -0.88034
H          1.26032        0.62770       -1.55626
H          1.35767       -1.14570       -1.49126
O          2.51783       -0.09709       -0.12206
H          2.35266       -0.64705        0.66840
C         -0.05733        1.02660        0.78958
H          0.88841        1.25770        1.29474
H         -0.83238        0.91385        1.56116
O         -0.40838        2.05077       -0.12918
H         -0.41343        2.88924        0.35648
N          0.37886       -1.32262        1.03462
H          0.30334       -2.23467        0.58159
H         -0.34717       -1.30727        1.75054
