23
id_2290_ca.log	Energy: -277787.9840643
C         -3.37331       -0.04693        0.01897
H         -4.45763       -0.09023        0.03458
C         -2.71898        1.17680        0.16887
H         -3.29227        2.08818        0.30519
C         -1.33180        1.23557        0.15538
H         -0.82933        2.18839        0.29160
C         -0.57663        0.06639       -0.01735
C         -1.23772       -1.15904       -0.16417
H         -0.67886       -2.07952       -0.30710
C         -2.62944       -1.21152       -0.14567
H         -3.12927       -2.16760       -0.26288
C          0.88634        0.15182       -0.04944
C          1.72197        1.17266       -0.23035
C          3.16310        0.75221       -0.22242
H          3.78545        1.39815        0.40054
H          3.57159        0.77122       -1.23862
C          3.09765       -0.66747        0.34408
H          3.23326       -0.67359        1.42450
H          3.76776       -1.38413       -0.12488
N          1.67150       -1.10141        0.09260
H          1.32052       -1.69083        0.85775
H          1.39793        2.19082       -0.40910
H          1.60321       -1.66387       -0.76725
