45
id_2148_cb.log	Energy: -791968.7432420
C          1.23618        3.11338        1.21988
H          2.20275        3.11600        1.73186
H          0.54780        2.46727        1.77460
H          0.83690        4.13190        1.21807
C          1.40167        2.62772       -0.21418
C          0.09293        2.58511       -0.98066
H          0.25888        2.27894       -2.01945
H         -0.39980        3.55685       -0.95534
O         -0.81632        1.66560       -0.36427
C         -0.30897        0.41113       -0.19218
C          1.08441        0.18993       -0.14498
N          1.95828        1.26187       -0.23735
C          3.28299        1.05629       -0.19694
H          3.88960        1.95440       -0.26257
C          3.87849       -0.17918       -0.07284
C          3.04874       -1.35884        0.00952
O          3.47523       -2.53267        0.08235
C          1.59514       -1.11217       -0.02390
C          0.69695       -2.18163        0.09419
H          1.05978       -3.19685        0.21287
C         -0.65115       -1.92993        0.10375
C         -1.21710       -0.64620       -0.05554
N         -2.59094       -0.36400       -0.10497
C         -3.52802       -1.40689       -0.52697
H         -3.12581       -1.91447       -1.40754
H         -3.69055       -2.15371        0.26297
C         -4.85907       -0.75972       -0.87320
H         -4.72290       -0.06570       -1.72337
H         -5.56439       -1.53691       -1.18417
N         -5.41623       -0.05322        0.28169
C         -4.46658        0.97442        0.71069
H         -4.32992        1.73058       -0.08546
H         -4.86998        1.48425        1.59125
C         -3.11675        0.37102        1.05417
H         -2.42118        1.16688        1.32713
H         -3.21606       -0.30966        1.91563
C         -6.67720        0.57584       -0.09228
H         -6.54668        1.29927       -0.91599
H         -7.09720        1.10579        0.76738
H         -7.39187       -0.18689       -0.41415
F         -1.48428       -2.98062        0.28787
C          5.39009       -0.20200       -0.01645
O          5.95525       -1.15820        0.58140
O          5.99619        0.76903       -0.55615
H          2.10216        3.26552       -0.75918
