14
id_2402_ca.log	Energy: -250735.9756186
C         -0.69305        1.81343        0.00000
H         -0.94208        2.86978       -0.00000
C          0.64320        1.41884        0.00000
H          1.44703        2.14705        0.00000
C          0.93297        0.05098        0.00000
C         -0.07786       -0.91702       -0.00000
H          0.16648       -1.97559        0.00000
C         -1.40492       -0.49506       -0.00000
C         -1.71410        0.86804       -0.00000
H         -2.75666        1.17159        0.00000
O         -2.45251       -1.37454       -0.00000
H         -2.13026       -2.29228        0.00001
C          2.30509       -0.37982        0.00000
N          3.41253       -0.72580       -0.00000
