19
id_2049_cb.log	Energy: -299767.0274908
C          0.06186        2.90192        0.00000
H          0.59850        3.27836        0.87928
H         -0.94300        3.33420        0.00000
H          0.59850        3.27836       -0.87928
C          0.00000        1.39996        0.00000
C         -1.20911        0.72883        0.00000
H         -2.13901        1.29421        0.00000
C         -1.25805       -0.67864        0.00000
C         -0.05555       -1.41201        0.00000
H         -0.09541       -2.49958        0.00000
C          1.16973       -0.77061        0.00000
C          1.23623        0.66590        0.00000
O          2.37334        1.27795        0.00000
C          2.45954       -1.54342        0.00000
H          3.06857       -1.30084        0.87926
H          3.06857       -1.30084       -0.87926
H          2.26970       -2.62075        0.00000
C         -2.51159       -1.35234        0.00000
N         -3.53879       -1.90347        0.00000
