31
id_2329_ca.log	Energy: -564502.7170335
C         -3.95262       -1.26215       -0.35395
H         -4.91063       -0.78128       -0.13949
H         -3.89733       -2.19791        0.20794
H         -3.90569       -1.48440       -1.42322
C         -2.82993       -0.33611        0.04336
H         -2.84515       -0.12282        1.11615
H         -2.86136        0.60458       -0.51280
O         -1.57539       -1.00422       -0.28020
P         -0.21973       -0.33231        0.21568
O          0.07210       -0.41237        1.67229
C          0.93051       -1.20807       -0.89053
H          0.72215       -2.27932       -0.84361
H          0.75628       -0.85572       -1.91017
N          2.37552       -1.00313       -0.57265
C          2.76407        0.43837       -0.48452
H          2.35831        0.85347        0.43983
H          2.37167        0.96016       -1.35667
H          3.85201        0.48569       -0.46393
C          2.81940       -1.75892        0.63910
H          2.29497       -1.35871        1.50550
H          3.89510       -1.61976        0.74039
H          2.57985       -2.81157        0.49268
O         -0.24685        1.15589       -0.36090
C         -0.26794        2.30365        0.53077
H         -1.27848        2.39676        0.93759
H          0.43125        2.12384        1.35116
C          0.12682        3.51105       -0.28415
H          0.10545        4.40044        0.35130
H         -0.56664        3.66032       -1.11588
H          1.13866        3.39044       -0.68173
H          2.88613       -1.39898       -1.37162
