21
id_2236_ca.log	Energy: -229989.4105508
C          2.65594       -1.45180        0.06173
H          3.21211       -1.36301        0.99989
H          3.36733       -1.29311       -0.75523
H          2.26745       -2.46971       -0.01592
C          1.54506       -0.43827        0.00261
C          1.81282        0.92332        0.19279
H          2.83427        1.23753        0.38982
C          0.79963        1.87364        0.13216
H          1.02837        2.92374        0.28024
C         -0.51534        1.48520       -0.12018
H         -1.32216        2.21030       -0.17095
C         -0.76608        0.13681       -0.31028
C          0.23021       -0.82881       -0.25026
H         -0.01683       -1.87689       -0.40223
N         -2.15089       -0.30186       -0.53673
H         -2.16184       -1.08497       -1.20265
C         -2.84208       -0.72742        0.72278
H         -2.84487        0.12212        1.40375
H         -2.28410       -1.56143        1.14545
H         -3.85722       -1.02732        0.46796
H         -2.68732        0.45972       -0.97111
