58
id_2098_ca.log	Energy: -1465547.2076028
C          1.90160        2.85986       -1.55989
H          1.34289        3.22164       -2.42680
H          2.55140        2.03821       -1.87995
H          2.55571        3.66540       -1.20695
C          0.95931        2.41950       -0.47556
C         -0.41631        2.55709       -0.59536
H         -0.82171        2.97878       -1.51499
C         -1.29550        2.13609        0.41441
C         -0.76576        1.61834        1.59292
H         -1.43088        1.29782        2.39152
C          0.61508        1.47133        1.75053
H          1.00783        1.05398        2.67107
C          1.46474        1.83535        0.70557
O          2.81284        1.65681        0.72224
C          3.39786        1.02632        1.85044
H          3.31054        1.67213        2.73455
H          2.89910        0.07640        2.06739
C          4.88209        0.76361        1.58202
O          5.44432        1.36925        0.63714
O          5.42786       -0.04057        2.38787
C         -2.77637        2.15386        0.16609
H         -3.34927        1.93633        1.07128
H         -3.11367        3.09792       -0.26692
N         -3.16776        1.08718       -0.84464
H         -2.72277        1.33613       -1.74143
C         -4.66309        1.10078       -1.10939
H         -5.00368        2.12769       -0.97121
H         -4.77534        0.83223       -2.16366
C         -5.39547        0.12527       -0.23878
C         -6.56775        0.45290        0.43832
H         -6.95441        1.46775        0.39122
C         -7.23947       -0.53139        1.16552
H         -8.15624       -0.28363        1.69211
C         -6.72932       -1.82903        1.22208
H         -7.25052       -2.59214        1.79273
C         -5.54364       -2.15026        0.55757
H         -5.13544       -3.15622        0.61323
C         -4.87969       -1.17478       -0.18243
C         -3.57121       -1.39379       -0.89111
H         -3.12003       -2.35051       -0.61429
H         -3.69504       -1.37655       -1.98184
C         -2.61666       -0.26961       -0.46969
C         -1.26067       -0.40985       -1.16662
O         -1.14529       -0.07365       -2.34255
N         -0.28785       -0.94915       -0.39868
H         -0.54328       -1.12439        0.56941
C          1.07498       -1.11184       -0.70183
C          1.66484       -0.65394       -1.88607
H          1.05854       -0.15823       -2.63187
C          3.02857       -0.81359       -2.11027
H          3.46801       -0.44977       -3.03323
C          3.81792       -1.43346       -1.14910
C          3.26737       -1.89400        0.04040
H          3.88158       -2.37219        0.79685
C          1.90366       -1.73212        0.24739
Cl         1.23331       -2.31536        1.75068
Cl         5.52219       -1.66425       -1.43858
H         -2.51819       -0.28211        0.61869
