15
id_2319_ca.log	Energy: -321155.4046998
C         -0.01811        1.22590       -0.00002
H         -0.57473        2.15573       -0.00004
C          1.36532        1.23166       -0.00002
H          1.91939        2.16442       -0.00004
C          2.06443        0.01744       -0.00000
C          1.38130       -1.20556        0.00002
H          1.94220       -2.13549        0.00004
C         -0.00394       -1.21581        0.00002
H         -0.54852       -2.15280        0.00003
C         -0.68587        0.00026       -0.00000
N         -2.13490       -0.00839       -0.00000
O         -2.72864        1.06417        0.00005
O         -2.71669       -1.08752       -0.00005
O          3.41776        0.08688        0.00000
H          3.80771       -0.80471        0.00000
