22
id_2298_ca.log	Energy: -274785.1675003
C         -3.26375        0.53363        0.97488
H         -3.99434        0.96137        0.27981
H         -2.52912        1.31045        1.21137
H         -3.78677        0.27948        1.90096
C         -2.59649       -0.69660        0.36935
H         -3.34550       -1.47047        0.16911
H         -1.87355       -1.12432        1.07341
C         -1.88795       -0.39339       -0.94717
H         -2.58463        0.04932       -1.66264
H         -1.47695       -1.29992       -1.39202
N         -0.79493        0.56910       -0.79191
H         -1.03068        1.55648       -0.81451
C          0.41500        0.23067       -0.36360
N          0.74949       -1.06106       -0.19565
C          1.98412       -1.32685        0.19574
H          2.22381       -2.37913        0.32110
C          2.96478       -0.35349        0.45068
H          3.96284       -0.61607        0.77112
C          2.58628        0.94729        0.27657
H          3.22542        1.80641        0.43730
N          1.32430        1.21867       -0.12441
H          1.04549        2.19184       -0.24990
