27
id_2365_ca.log	Energy: -232260.1375420
C         -2.29058       -0.89406       -0.80637
H         -2.41091       -1.94262       -0.51267
H         -3.23473       -0.37489       -0.61109
H         -2.09478       -0.85653       -1.88334
C         -1.15997       -0.23048       -0.01861
C         -1.00140        1.23168       -0.46741
H         -1.89143        1.79777       -0.17149
H         -0.94542        1.25746       -1.56377
C          0.25687        1.88187        0.10744
H          0.18143        1.99200        1.19498
H          0.39470        2.88474       -0.30636
C          1.49377        1.06838       -0.23324
H          2.39612        1.46647        0.23355
H          1.64725        0.99786       -1.31434
N          1.34343       -0.34659        0.24875
C          0.12542       -0.99431       -0.34532
H          0.09151       -2.01728        0.03870
H          0.30640       -1.02116       -1.42496
C          2.56505       -1.14490       -0.03955
H          3.41616       -0.66244        0.44026
H          2.70217       -1.17301       -1.12117
H          2.42432       -2.15137        0.35362
C         -1.47434       -0.32114        1.47875
H         -0.70421        0.13667        2.10843
H         -1.58091       -1.36756        1.78434
H         -2.41678        0.19454        1.69050
H          1.22619       -0.31665        1.26945
