22
id_2239_cb.log	Energy: -300790.3308723
C          2.98274       -1.37793        0.07841
H          2.73767       -1.79535        1.06363
H          4.06309       -1.25706        0.00941
H          2.67591       -2.09557       -0.68731
N          2.35277       -0.08335       -0.13992
C          3.15728        1.10986        0.08063
H          2.97193        1.55585        1.06649
H          2.95321        1.86482       -0.68373
H          4.21051        0.84064        0.01156
C          0.99082        0.01429       -0.07936
C          0.17358       -1.14891       -0.05737
H          0.62613       -2.13269       -0.06461
C         -1.20061       -1.04272       -0.02402
H         -1.81136       -1.94116       -0.00862
C         -1.82998        0.21205       -0.00268
C         -1.03065        1.36253       -0.01148
H         -1.50628        2.34052        0.01378
C          0.34808        1.27793       -0.04462
H          0.93347        2.18861       -0.04174
C         -3.27971        0.33706        0.03694
H         -3.66121        1.37517        0.05746
O         -4.06647       -0.60316        0.04805
