23
id_2002_ca.log	Energy: -337801.0278985
C          3.63008       -0.09849        0.03449
H          4.71590       -0.07495        0.02804
C          2.91261        0.85802        0.75228
H          3.43674        1.62549        1.31449
C          1.51810        0.82722        0.76140
H          0.96693        1.55943        1.34805
C          0.82128       -0.15942        0.04769
C          1.55278       -1.11759       -0.66818
H          1.02272       -1.88347       -1.22889
C          2.94588       -1.08860       -0.67287
H          3.49781       -1.83709       -1.23424
C         -0.66518       -0.21381        0.06405
C         -1.32650       -1.40935        0.37712
H         -0.72690       -2.28392        0.61774
C         -2.71597       -1.48999        0.40435
H         -3.20212       -2.42653        0.65916
C         -3.47396       -0.35524        0.10895
H         -4.55897       -0.39968        0.12888
C         -2.84294        0.84009       -0.22046
H         -3.41509        1.72881       -0.47088
C         -1.44953        0.90987       -0.24762
O         -0.90498        2.11649       -0.61554
H          0.06303        2.04372       -0.68530
