8
id_2423_cb.log	Energy: -167304.6466308
C          0.14707       -1.90472        0.00000
H          1.23361       -1.85980        0.00000
H         -0.31309       -2.88923        0.00000
C         -0.58971       -0.79387        0.00000
H         -1.67657       -0.84383        0.00000
C          0.00000        0.59560        0.00000
O          1.25660        0.72491        0.00000
O         -0.83012        1.55144        0.00000
