22
id_2414_ca.log	Energy: -277175.9207855
C         -2.66515       -1.72589       -0.04896
H         -2.07959       -2.26463        0.70343
H         -2.33815       -2.02270       -1.05090
H         -3.72211       -1.96045        0.07449
O         -2.55322       -0.32020        0.12887
C         -1.30861        0.22568        0.02509
C         -1.23239        1.61182        0.21365
H         -2.14572        2.15877        0.42517
C         -0.00861        2.25690        0.12540
H          0.04160        3.33129        0.27052
C          1.15444        1.53429       -0.15004
H          2.11462        2.03628       -0.22131
C          1.07456        0.15856       -0.34074
C         -0.15527       -0.50548       -0.25499
H         -0.19169       -1.57859       -0.41347
C          2.32033       -0.64031       -0.60391
H          3.13500       -0.01569       -0.96872
H          2.14618       -1.45969       -1.30148
N          2.80413       -1.26994        0.67204
H          2.08813       -1.89012        1.06834
H          3.02022       -0.55143        1.37344
H          3.65258       -1.82538        0.51232
