25
id_2349_ca.log	Energy: -878599.6142837
C          4.29881       -1.32335        1.31297
H          4.19701       -1.54014        2.37478
H          5.22689       -0.78856        1.11688
H          4.25242       -2.24025        0.72729
N          3.16371       -0.45089        0.89950
H          2.27817       -0.92882        1.10953
C          3.21066       -0.09251       -0.55094
H          4.16099        0.41548       -0.72094
H          3.20228       -1.02942       -1.10957
C          2.06594        0.82852       -0.97467
C          0.68461        0.25636       -0.68254
C          0.39298       -1.08815       -0.93693
H          1.15087       -1.75436       -1.33709
C         -0.87536       -1.59635       -0.69179
H         -1.09766       -2.63954       -0.88809
C         -1.87470       -0.76687       -0.19070
C         -1.59408        0.57563        0.05695
C         -0.32195        1.08375       -0.19053
H         -0.13283        2.13510       -0.00458
Cl        -2.81588        1.64659        0.67417
Cl        -3.45168       -1.42995        0.11137
O          2.23864        2.13568       -0.46354
H          1.98585        2.15953        0.47444
H          2.17149        0.92946       -2.06049
H          3.17656        0.40723        1.46466
