45
id_23_ca.log	Energy: -520860.7402110
C          2.18927        2.41994        1.22050
H          2.14065        1.49761        1.79431
H          1.94289        3.26890        1.85769
H          3.17629        2.55210        0.77475
N          1.18955        2.36094        0.11582
C          1.01607        3.71307       -0.49254
H          1.98106        4.02654       -0.89247
H          0.68257        4.39909        0.28507
H          0.27385        3.64753       -1.28741
C          1.52822        1.36730       -0.96571
H          2.43011        1.76269       -1.44186
H          0.70345        1.44379       -1.67672
C          1.76496       -0.10410       -0.60204
C          3.14182       -0.42432        0.00212
H          3.19803       -0.11295        1.04934
H          3.90906        0.13488       -0.54539
C          3.41552       -1.92771       -0.08106
H          3.45309       -2.22761       -1.13715
H          4.39405       -2.15516        0.35453
C          2.31975       -2.72145        0.63062
H          2.34993       -2.50413        1.70485
H          2.49127       -3.79702        0.51697
C          0.93684       -2.36847        0.08141
H          0.86276       -2.67114       -0.96991
H          0.15024       -2.89448        0.63372
C          0.64144       -0.85799        0.16774
C         -0.74821       -0.59453       -0.41040
C         -0.95811       -0.63529       -1.79175
H         -0.13170       -0.82849       -2.46925
C         -2.23559       -0.43086       -2.31106
H         -2.39053       -0.45948       -3.38517
C         -3.31412       -0.19039       -1.47125
H         -4.31397       -0.02820       -1.86057
C         -3.11149       -0.16493       -0.08962
C         -1.83562       -0.36926        0.44190
H         -1.69431       -0.38042        1.51540
O         -4.22182        0.06178        0.67143
C         -4.05923        0.07577        2.08294
H         -3.69380       -0.89008        2.44700
H         -5.04875        0.27010        2.49621
H         -3.37081        0.86893        2.39288
O          0.69322       -0.55744        1.56480
H          0.19454        0.25092        1.76034
H          1.78415       -0.55721       -1.60352
H          0.27865        2.10147        0.51500
