38
id_210_cb.log	Energy: -747045.9968316
C          4.96532       -1.91900       -0.70773
H          5.61766       -2.77268       -0.50434
H          5.40834       -1.02708       -0.23024
H          4.94359       -1.75094       -1.78818
N          3.61870       -2.19441       -0.21860
C          3.68423       -2.40078        1.22495
H          2.71097       -2.70069        1.61955
H          4.01103       -1.49062        1.75950
H          4.39661       -3.19995        1.44670
C          2.77332       -1.03828       -0.52487
H          3.18704       -0.12688       -0.05114
H          2.81342       -0.87504       -1.60906
C          1.31847       -1.21421       -0.10298
H          0.95509       -2.19099       -0.44367
H          1.23417       -1.19184        0.98838
C          0.42862       -0.11367       -0.69406
C         -1.05723       -0.31781       -0.43966
C         -1.97264        0.42260       -1.19683
H         -1.60377        1.10969       -1.95497
C         -3.34287        0.29925       -1.00179
H         -4.04412        0.87442       -1.59693
C         -3.80152       -0.58195       -0.02727
C         -2.92199       -1.33002        0.74248
H         -3.29703       -2.01308        1.49723
C         -1.55036       -1.19085        0.53052
H         -0.87089       -1.78298        1.13480
Cl        -5.52685       -0.75138        0.22936
C          0.85227        1.25488       -0.18408
C          1.33478        2.22762       -1.06043
H          1.40631        2.00981       -2.12152
C          1.72000        3.46465       -0.55278
H          2.09889        4.23773       -1.21422
C          1.61106        3.68802        0.81495
H          1.89739        4.63359        1.26177
C          1.11914        2.65691        1.61011
H          1.02036        2.79745        2.68390
N          0.74354        1.46562        1.13601
H          0.57219       -0.10910       -1.78166
