38
id_2424_ca.log	Energy: -447647.4418851
C         -4.00383       -1.75127       -0.18647
H         -4.37516       -2.16833       -1.12654
H         -4.62595       -0.89439        0.08927
H         -4.08825       -2.51724        0.58967
C         -2.56062       -1.31606       -0.34981
C         -2.03519       -0.67761        0.92310
H         -2.00423       -1.37946        1.75788
H         -2.65495        0.17978        1.18859
N         -0.63611       -0.17343        0.67675
C          0.40931       -1.17458        1.10262
H          0.45524       -1.13558        2.19291
H          0.03830       -2.15363        0.78963
C          1.72897       -0.85337        0.45661
C          1.87449       -1.01064       -0.92581
H          1.04242       -1.39491       -1.51438
C          3.07596       -0.68175       -1.54560
H          3.18340       -0.80665       -2.61836
C          4.14261       -0.20028       -0.78580
H          5.08115        0.05288       -1.26891
C          4.00431       -0.04696        0.59177
H          4.83286        0.32648        1.18514
C          2.79806       -0.36923        1.21157
H          2.68214       -0.24588        2.28526
C         -0.39898        1.19774        1.24907
H         -0.95937        1.25339        2.18403
H          0.66717        1.29150        1.46519
C         -0.81290        2.29889        0.27037
C          0.03269        2.30499       -0.99826
H          1.09996        2.33071       -0.75751
H         -0.21671        3.18477       -1.59652
H         -0.16122        1.42092       -1.61891
O         -2.20092        2.25953       -0.03049
H         -2.35811        1.54068       -0.67352
O         -2.42139       -0.29532       -1.34345
H         -2.60480       -0.67616       -2.21751
H         -1.93028       -2.17228       -0.62373
H         -0.64841        3.23660        0.81022
H         -0.55332       -0.09207       -0.34780
