16
id_2160_ca.log	Energy: -794290.6170824
C          0.10986        3.45795        0.00369
H          0.54256        3.82686        0.93964
H         -0.89108        3.88417       -0.10097
H          0.73191        3.83032       -0.81624
C          0.05593        1.95265       -0.00354
C          1.23607        1.20147       -0.00283
H          2.20069        1.70167       -0.00492
C          1.19082       -0.18455       -0.00003
C         -0.02275       -0.88308        0.00138
C         -1.19063       -0.11784       -0.00006
C         -1.16090        1.27313       -0.00305
H         -2.09743        1.82330       -0.00522
Cl        -2.72966       -0.94366       -0.00023
O          0.00627       -2.24046        0.00261
H         -0.89547       -2.60798        0.00216
Cl         2.67367       -1.09946       -0.00028
