23
id_2090_ca.log	Energy: -560999.0990240
C         -3.48274       -0.98700       -0.20590
H         -3.54784       -1.82526       -0.90316
H         -4.27993       -0.27589       -0.43372
H         -3.62086       -1.36030        0.81335
C         -2.13827       -0.30423       -0.33540
C         -1.95204        0.78788        0.71836
H         -1.62860        0.33378        1.66093
H         -2.89981        1.29689        0.88976
N         -1.00628        1.80898        0.29925
C          0.23544        1.55500       -0.07293
C          0.76769        0.21085       -0.04015
C          0.13861       -1.02899       -0.06405
C          1.06031       -2.11761        0.02063
H          0.73777       -3.15098        0.00806
C          2.34875       -1.70185        0.11138
H          3.23677       -2.31569        0.19339
S          2.50242        0.00687        0.10439
O         -1.15845       -1.34041       -0.16535
N          1.03206        2.56652       -0.41733
H          0.67471        3.51662       -0.40573
H          1.87412        2.40598       -0.95631
H         -2.00354        0.12474       -1.33506
H         -1.36081        2.75058        0.15592
