22
id_2053_ca.log	Energy: -1888234.2726587
C          0.89376        2.54673        0.00002
H          1.53782        2.57023       -0.88402
H          1.53804        2.57009        0.88391
H          0.25368        3.42987        0.00017
C          0.09217        1.29216        0.00002
C          0.61737        0.02090        0.00001
C         -0.25505       -1.09239        0.00002
N         -1.57214       -0.93834        0.00001
C         -2.07717        0.30276        0.00000
N         -1.25870        1.39344        0.00002
N         -3.38782        0.48801       -0.00002
H         -3.74856        1.43589       -0.00003
C         -4.33282       -0.62118       -0.00003
H         -5.33450       -0.19665       -0.00004
H         -4.20160       -1.23905        0.89018
H         -4.20158       -1.23906       -0.89022
C          0.27836       -2.48543        0.00004
H         -0.54359       -3.19964        0.00006
H          0.90743       -2.64699        0.88148
H          0.90741       -2.64702       -0.88141
Br         2.47979       -0.21560       -0.00002
H         -1.67633        2.32532        0.00003
