20
id_243_cb.log	Energy: -510464.5915329
C          3.95979        0.14390       -0.00002
H          5.03276        0.30701       -0.00003
C          3.07246        1.19018       -0.00003
H          3.41696        2.22171       -0.00005
C          1.67753        0.92941       -0.00002
C          0.71556        1.97884       -0.00004
H          1.05143        3.01138       -0.00006
C         -0.61872        1.66118       -0.00003
H         -1.36094        2.45442       -0.00005
C         -1.05215        0.31626       -0.00000
C         -0.15788       -0.78214        0.00003
C          1.26847       -0.43121        0.00001
N          2.15998       -1.45758        0.00002
C          3.44767       -1.17288        0.00001
H          4.13350       -2.01712        0.00002
O         -0.54956       -1.99985        0.00004
C         -2.50475        0.00623        0.00001
F         -2.90815       -0.71463       -1.07819
F         -3.27759        1.11651       -0.00003
F         -2.90815       -0.71456        1.07825
