25
id_2351_ca.log	Energy: -426332.5944109
C          3.65051       -1.43964        1.23108
H          3.56052       -2.33335        0.61533
H          3.54804       -1.68750        2.28600
H          4.59847       -0.93740        1.04373
N          2.54926       -0.50721        0.85692
H          1.64539       -0.95290        1.05973
C          2.59743       -0.11012       -0.58423
H          3.57100        0.35222       -0.75423
H          2.52923       -1.03172       -1.16412
C          1.48853        0.87043       -0.97418
C          0.09850        0.33891       -0.65029
C         -0.31033       -0.89570       -1.16587
H          0.35750       -1.46730       -1.80378
C         -1.57641       -1.40266       -0.88732
H         -1.90956       -2.35556       -1.28378
C         -2.43289       -0.66699       -0.08748
C         -2.03478        0.55968        0.42277
C         -0.77974        1.07316        0.14822
H         -0.52131        2.04603        0.55165
F         -2.89656        1.24458        1.18702
F         -3.66026       -1.11706        0.20601
O          1.72692        2.16584       -0.46134
H          1.58847        2.17592        0.49971
H          1.57359        0.97453       -2.06091
H          2.60498        0.33067        1.44945
