16
id_283_ca.log	Energy: -1838916.7655772
C         -0.32118        2.30411       -0.00001
H         -0.96723        2.36898       -0.88189
H          0.38442        3.13344        0.00004
H         -0.96733        2.36895        0.88181
C          0.41136        1.00689        0.00000
C         -0.29392       -0.22988        0.00000
C          0.42686       -1.38457       -0.00001
H          0.00178       -2.38064       -0.00001
N          1.77679       -1.31063       -0.00001
C          2.42025       -0.11601        0.00000
N          1.73237        1.03863        0.00000
N          3.74129       -0.09113        0.00001
H          4.21049        0.80682       -0.00001
H          4.29404       -0.94103        0.00002
Br        -2.16818       -0.28916        0.00000
H          2.31664       -2.17728       -0.00002
