43
id_2020_ca.log	Energy: -663140.6048541
C         -3.40726        1.89662       -0.09361
H         -3.01422        2.00867        0.92129
H         -4.46380        1.62141       -0.03811
H         -3.33825        2.86786       -0.59022
C         -2.60572        0.89877       -0.90289
H         -1.57556        1.22971       -1.04987
H         -3.04942        0.72402       -1.88388
N         -2.49497       -0.44373       -0.22795
C         -3.81836       -1.11896        0.01237
H         -3.58205       -2.07819        0.47773
H         -4.35511       -0.50674        0.73910
C         -4.60535       -1.31094       -1.26753
H         -5.46524       -1.94889       -1.05000
H         -3.99844       -1.80570       -2.03240
H         -4.97934       -0.36463       -1.66559
C         -1.68581       -0.38022        1.04541
H         -1.08948        0.53396        1.00676
H         -2.39731       -0.29211        1.86776
C         -0.80828       -1.61345        1.21546
H         -1.41705       -2.51907        1.12776
H         -0.41943       -1.59528        2.23805
C          0.36257       -1.70824        0.22765
H          0.04795       -1.63916       -0.82017
H          0.86019       -2.67672        0.34185
P          1.62925       -0.46463        0.50369
O          2.08123       -0.29262        1.91606
O          2.77402       -0.93619       -0.51609
C          3.86232       -0.01670       -0.79200
H          3.46576        0.80523       -1.39578
H          4.23714        0.38460        0.15496
C          4.93540       -0.78198       -1.52826
H          5.76413       -0.11062       -1.76811
H          4.54029       -1.19475       -2.46033
H          5.31561       -1.59998       -0.91084
O          1.03520        0.88801       -0.13459
C          1.33980        2.18022        0.45136
H          1.36019        2.07866        1.53875
H          2.33262        2.48273        0.10543
C          0.27615        3.15669        0.00784
H         -0.70368        2.87033        0.40293
H          0.22098        3.20161       -1.08362
H          0.52165        4.15389        0.38388
H         -1.98843       -1.03984       -0.89494
