22
id_240_cb.log	Energy: -337507.7882941
C         -3.83138       -0.27576        0.04279
H         -4.90930       -0.40744        0.06688
C         -3.25588        0.90676        0.50940
H         -3.88448        1.69920        0.90620
C         -1.87223        1.07458        0.47825
H         -1.43500        1.99293        0.86143
C         -1.03488        0.06513       -0.02003
C         -1.62629       -1.11845       -0.48620
H         -0.99833       -1.90661       -0.89334
C         -3.00971       -1.28782       -0.45530
H         -3.44654       -2.21000       -0.82846
C          0.44242        0.24866       -0.05543
C          0.99066        1.50731       -0.35263
H          0.34450        2.35023       -0.57994
C          2.38003        1.65076       -0.38341
H          2.81115        2.62084       -0.62233
C          3.22467        0.57673       -0.12285
H          4.30469        0.70704       -0.14822
C          2.70770       -0.71365        0.18393
C          1.29040       -0.83170        0.20581
H          0.86848       -1.80293        0.45874
O          3.48897       -1.73232        0.43913
