15
id_211_cb.log	Energy: -225188.2573762
C         -0.68577        1.21144       -0.00888
H         -1.23291        2.15079       -0.01767
C          0.69572        1.20550        0.00791
H          1.25865        2.13359        0.01713
C          1.37263       -0.02508        0.01187
N          0.71991       -1.18849        0.00519
C         -0.62016       -1.16404       -0.00394
H         -1.11869       -2.13204       -0.00708
C         -1.38712       -0.00278       -0.01324
N         -2.78881       -0.04560       -0.09717
H         -3.16755       -0.90535        0.28993
H         -3.22212        0.74743        0.36683
N          2.76511       -0.07101        0.09226
H          3.14036       -0.93882       -0.27664
H          3.21710        0.72983       -0.33666
