25
id_2430_ca.log	Energy: -301833.1745874
C         -3.26730       -1.41773       -0.68110
H         -3.14069       -2.20343        0.06234
H         -3.32717       -1.84182       -1.68181
H         -4.15204       -0.82175       -0.46256
N         -2.07699       -0.52438       -0.61884
H         -1.23406       -1.06492       -0.85136
C         -1.89966        0.11940        0.71810
H         -2.80951        0.68685        0.91920
H         -1.81326       -0.68663        1.44772
C         -0.69330        1.05849        0.75945
C          0.61504        0.38351        0.36629
C          1.53902        1.04457       -0.44590
H          1.32853        2.04718       -0.80353
C          2.74464        0.43449       -0.78914
H          3.45101        0.96346       -1.42142
C          3.04368       -0.84191       -0.32174
H          3.98233       -1.31674       -0.58944
C          2.13103       -1.50501        0.49708
H          2.35623       -2.49832        0.87260
C          0.92617       -0.89758        0.83985
H          0.23309       -1.42592        1.48921
O         -0.94939        2.23830        0.01902
H         -0.78872        2.06913       -0.92404
H         -0.62136        1.38340        1.80342
H         -2.16623        0.20429       -1.33800
