16
id_227_cb.log	Energy: -407077.1201244
C          1.72861        0.00712        0.65127
H          1.62365       -0.05333        1.73942
H          2.77837       -0.17418        0.40414
C          1.24739        1.32894        0.12446
H          1.77009        2.23797        0.40888
C          0.18164        1.30685       -0.67057
H         -0.26825        2.19880       -1.10003
C         -0.47534       -0.02513       -0.91150
S          0.68563       -1.25599       -0.17665
C         -1.87588       -0.09332       -0.27544
H         -2.31552       -1.07092       -0.49343
H         -2.50121        0.65648       -0.77319
N         -1.93137        0.13314        1.16400
H         -1.47709        1.02615        1.35943
H         -1.33197       -0.56605        1.60565
H         -0.56703       -0.23782       -1.98186
