15
id_2433_ca.log	Energy: -349221.2719089
C         -0.83068       -0.72880        1.25416
H         -1.92749       -0.75768        1.25873
H         -0.49460       -0.21651        2.16111
H         -0.46356       -1.76077        1.28050
C         -0.34766       -0.00356        0.00000
C         -0.83636        1.44439       -0.00001
H         -1.93234        1.45166       -0.00002
H         -0.49205        1.98215       -0.89003
H         -0.49206        1.98216        0.89000
C         -0.83068       -0.72882       -1.25415
H         -1.92749       -0.75771       -1.25872
H         -0.46355       -1.76079       -1.28047
H         -0.49460       -0.21655       -2.16111
S          1.50257        0.08725        0.00000
H          1.71884       -1.24120       -0.00000
