28
id_2187_ca.log	Energy: -433556.7242530
C          4.76234        1.00965        0.54319
H          5.83336        0.84632        0.41767
H          4.52819        1.11464        1.60784
H          4.47006        1.94187        0.04844
C          4.00777       -0.15044       -0.04356
O          4.60315       -1.09406       -0.55466
C          2.51414       -0.13998        0.00137
C          1.80714        0.90639        0.60299
H          2.33263        1.73665        1.06439
C          0.41510        0.89067        0.62842
H         -0.11832        1.69587        1.12795
C         -0.29907       -0.16693        0.04785
C          0.41650       -1.21644       -0.55007
H         -0.12462       -2.03904       -1.00963
C          1.80419       -1.20395       -0.57084
H          2.34774       -2.01776       -1.04083
C         -1.78367       -0.20140        0.07955
C         -2.44902       -1.35666        0.51470
H         -1.85269       -2.20889        0.83127
C         -3.83757       -1.42093        0.57048
H         -4.32697       -2.32341        0.92284
C         -4.59055       -0.31290        0.17607
H         -5.67542       -0.34514        0.21530
C         -3.95568        0.83812       -0.27794
H         -4.52472        1.70287       -0.60669
C         -2.56207        0.89456       -0.33060
O         -2.01945        2.05722       -0.82035
H         -1.05610        1.97213       -0.92801
