33
id_2185_ca.log	Energy: -411922.2735550
C          3.17553       -0.97894       -0.42462
H          3.82635       -1.80821       -0.68663
C          2.76308       -0.79941        0.89846
H          3.09321       -1.48953        1.67012
C          1.92698        0.26754        1.23195
H          1.60412        0.39902        2.26310
C          1.48616        1.17061        0.25680
C          1.91281        0.98275       -1.06395
H          1.58221        1.67858       -1.83256
C          2.74827       -0.08142       -1.40547
H          3.06554       -0.21045       -2.43661
C          0.53905        2.28833        0.62458
H          0.82578        2.69685        1.60032
H          0.62740        3.09939       -0.10886
C         -0.92686        1.82583        0.68819
H         -1.00887        1.00602        1.41344
H         -1.53903        2.65168        1.07414
C         -1.47569        1.39814       -0.67255
H         -1.38170        2.24609       -1.36492
H         -0.85199        0.59972       -1.09778
C         -2.93783        0.94589       -0.64592
H         -3.28054        0.80460       -1.67928
H         -3.55628        1.74553       -0.21705
C         -3.20594       -0.35079        0.12578
H         -4.27032       -0.59140        0.04078
H         -3.00069       -0.22186        1.19502
C         -2.40146       -1.54870       -0.40276
H         -2.32645       -1.52571       -1.49367
H         -2.90360       -2.48298       -0.12341
C         -1.02550       -1.64845        0.19918
O         -0.79663       -1.58680        1.39506
O         -0.05205       -1.85498       -0.69956
H          0.81274       -1.89148       -0.23806
