50
id_2123_cb.log	Energy: -1101024.7124844
C          2.39338        1.49886       -1.45529
H          3.25023        1.69647       -2.10396
H          2.72652        0.90162       -0.59659
H          1.64580        0.94358       -2.02385
N          1.84956        2.79766       -1.03240
C          2.81290        3.51742       -0.18949
H          3.09826        2.93197        0.69416
H          3.70420        3.70008       -0.79397
H          2.40003        4.47692        0.12135
S          0.32022        2.68159       -0.34829
O         -0.07719        4.06684       -0.02230
O         -0.51409        2.01511       -1.36750
N          0.56099        1.78137        0.97756
C         -0.53784        1.40014        1.66275
O         -1.72243        1.69369        1.38638
C         -0.25448        0.59336        2.92052
H         -0.47791        1.26858        3.75724
H          0.80935        0.35064        2.98406
C         -1.12039       -0.66132        3.06587
H         -2.16739       -0.38992        2.88995
H         -1.05797       -1.00535        4.10411
C         -0.72606       -1.84245        2.15976
H         -1.41314       -2.67032        2.38153
H          0.27453       -2.19317        2.43181
C         -0.79272       -1.55632        0.68648
C         -2.01805       -1.30911       -0.02896
C         -3.35836       -1.23158        0.36469
H         -3.65896       -1.38462        1.39735
C         -4.31379       -0.94365       -0.60985
C         -3.96510       -0.73240       -1.96853
H         -4.74613       -0.50145       -2.68568
C         -2.64791       -0.82572       -2.37429
H         -2.36505       -0.67434       -3.41140
C         -1.68948       -1.12657       -1.39710
N         -0.34319       -1.30036       -1.51371
H          0.19428       -1.07598       -2.34388
C          0.21306       -1.53079       -0.26093
C          1.66773       -1.73354       -0.16551
C          2.39112       -1.36062        0.97679
H          1.88325       -0.90785        1.81904
C          3.77244       -1.52072        1.03891
H          4.33778       -1.22824        1.91796
C          4.42343       -2.04270       -0.06654
C          3.75465       -2.41735       -1.22047
H          4.30450       -2.82654       -2.06188
C          2.37175       -2.26364       -1.25914
H          1.84009       -2.57391       -2.15413
F          5.76921       -2.19047       -0.01860
C         -5.69341       -0.85674       -0.22981
N         -6.81252       -0.78749        0.07497
