18
id_228_cb.log	Energy: -623925.3842627
C         -1.31918        2.20217        0.08472
H         -1.60924        3.24687        0.02507
C         -0.00062        1.85894        0.38122
H          0.74032        2.63556        0.55225
C          0.37766        0.51804        0.46430
C         -0.57347       -0.48359        0.25370
H         -0.29228       -1.53111        0.31721
C         -1.88261       -0.11981       -0.03744
C         -2.27720        1.21213       -0.12749
H         -3.30744        1.46831       -0.35284
Cl        -3.07411       -1.37929       -0.29959
C          1.81944        0.13921        0.73194
C          2.53251       -0.17954       -0.60712
O          2.99837       -1.34482       -0.71922
O          2.58537        0.74042       -1.45938
O          1.91252       -0.96958        1.60670
H          2.36525       -1.66438        1.08649
H          2.33399        0.99939        1.17700
