56
id_29_ca.log	Energy: -1441166.6400915
C          1.61494       -1.24498       -2.94272
H          0.88380       -1.36901       -3.74535
H          2.48143       -1.87953       -3.16020
H          1.96633       -0.20732       -2.94950
C          1.00301       -1.60459       -1.61830
C         -0.30794       -2.05256       -1.51364
H         -0.90809       -2.12892       -2.41990
C         -0.88423       -2.37184       -0.27648
C         -0.10350       -2.28136        0.87250
H         -0.53091       -2.53165        1.84045
C          1.22263       -1.84758        0.80204
H          1.80102       -1.78464        1.71802
C          1.75558       -1.48488       -0.43327
O          3.01543       -0.97319       -0.61047
C          3.88180       -0.88294        0.49449
H          4.72505       -0.26201        0.17765
H          3.41765       -0.40358        1.36378
C          4.42025       -2.24326        0.88896
O          4.19527       -3.27571        0.29471
O          5.19438       -2.15563        1.97305
C         -2.34312       -2.71827       -0.18522
H         -2.61195       -3.05421        0.81837
H         -2.65014       -3.46806       -0.91826
N         -3.20278       -1.50754       -0.46757
H         -3.05328       -1.22857       -1.45116
C         -4.68330       -1.77393       -0.31399
H         -5.05545       -2.21614       -1.23857
H         -4.80936       -2.47996        0.51164
C         -5.22487       -0.41278        0.01161
C         -6.54084        0.03375       -0.01788
H         -7.34523       -0.62575       -0.32998
C         -6.80059        1.35333        0.35811
H         -7.82050        1.72510        0.33678
C         -5.76362        2.20410        0.75280
H         -5.98542        3.22888        1.03435
C         -4.44307        1.75200        0.78033
H         -3.63293        2.41179        1.07960
C         -4.19569        0.43682        0.40727
C         -2.87283       -0.29033        0.36277
C         -1.77900        0.50333       -0.36413
O         -1.90247        0.73078       -1.56330
N         -0.75565        0.90724        0.41973
H         -0.79448        0.59212        1.38511
C          0.45466        1.50485        0.02733
C          0.76195        1.83524       -1.29776
H          0.03612        1.65785       -2.07917
C          2.00355        2.36929       -1.62789
H          2.22818        2.60800       -2.66230
C          2.94814        2.58216       -0.63228
C          2.67085        2.28189        0.69549
H          3.40696        2.44690        1.47559
C          1.42871        1.74771        1.00980
Cl         1.10789        1.35348        2.68012
Cl         4.51574        3.22681       -1.04415
H         -2.55917       -0.63748        1.35349
H          5.55589       -3.03748        2.19166
