9
id_2004_cb.log	Energy: -191186.1412825
C          2.88618        0.00061       -0.00027
H          3.27697        1.01303       -0.13395
H          3.26847       -0.62944       -0.80863
H          3.26532       -0.39406        0.94701
C          1.42403        0.00136       -0.00048
C          0.21207        0.00054       -0.00013
C         -1.26865       -0.00008        0.00002
O         -1.83290       -1.12541        0.00005
O         -1.83366        1.12489        0.00004
