25
id_2174_ca.log	Energy: -432190.5366549
C          4.19877       -0.62460       -0.32298
H          4.88291        0.00656       -0.88680
H          4.17072       -1.63132       -0.74398
H          4.48966       -0.66331        0.72850
O          2.91009       -0.00184       -0.45352
C          1.90193       -0.60238        0.18229
O          2.04169       -1.63952        0.80668
C          0.62050        0.15305        0.06477
C          0.68582        1.52727        0.06649
H          1.64189        2.03954        0.10792
C         -0.49804        2.30034        0.04645
C         -1.72593        1.69063        0.01367
H         -2.63531        2.28764        0.00298
C         -1.81976        0.27418       -0.01508
C         -0.64007       -0.52827        0.01175
C         -0.77873       -1.94300       -0.06086
H          0.10634       -2.56796       -0.06932
C         -2.02272       -2.52420       -0.12962
H         -2.10900       -3.60514       -0.18794
C         -3.19324       -1.72680       -0.13052
H         -4.16899       -2.20094       -0.18106
C         -3.09190       -0.35902       -0.07870
H         -3.98077        0.26658       -0.09221
O         -0.32947        3.65933        0.06916
H         -1.19578        4.10144        0.05748
