21
id_209_ca.log	Energy: -601676.9437107
C          1.59988        2.29149       -0.04007
H          1.66095        3.37485       -0.07890
C          2.55816        1.55839        0.65833
H          3.37310        2.05999        1.17112
C          2.47515        0.16843        0.69402
H          3.21726       -0.41997        1.22447
C          1.42709       -0.46709        0.03392
C          0.44265        0.23612       -0.67024
C          0.56112        1.63198       -0.69320
H         -0.18356        2.20361       -1.24086
C         -0.70641       -0.45160       -1.36756
H         -1.15188        0.24079       -2.08742
H         -0.34071       -1.31530       -1.93100
C         -1.78776       -0.93854       -0.39890
H         -1.37766       -1.57933        0.38693
H         -2.53107       -1.53973       -0.93818
C         -2.54989        0.18477        0.24861
O         -2.63435        1.32094       -0.17888
O         -3.18175       -0.20496        1.36742
H         -3.69663        0.54671        1.72116
Cl         1.37877       -2.22254        0.08676
