19
id_2421_ca.log	Energy: -288771.1725833
C         -2.12377       -1.04369        0.73399
H         -3.20546       -0.96820        0.56472
H         -1.90710       -0.53634        1.67933
H         -1.83794       -2.09561        0.78834
C         -1.42847       -0.35633       -0.40422
O         -0.88405       -0.98810       -1.30467
C         -1.40060        1.15151       -0.39850
H         -1.31162        1.50088       -1.43198
H         -2.33199        1.53242        0.03246
C         -0.21213        1.68478        0.42557
H         -0.31682        1.39214        1.47567
H         -0.25183        2.77671        0.39103
C          1.14428        1.23189       -0.10832
H          1.94444        1.84671        0.32429
H          1.21025        1.34795       -1.19488
C          1.49377       -0.18660        0.25269
O          1.04559       -0.79886        1.20537
O          2.40627       -0.72113       -0.57242
H          2.62711       -1.62133       -0.26248
