20
id_2403_ca.log	Energy: -289366.0811169
C         -3.86629       -0.26759        0.00000
H         -4.47820       -1.17427        0.00002
H         -4.11534        0.31811       -0.88996
H         -4.11533        0.31813        0.88995
C         -2.40260       -0.64544        0.00000
H         -2.14465       -1.22958       -0.89113
H         -2.14465       -1.22957        0.89114
O         -1.64638        0.56979       -0.00001
C         -0.28385        0.48153       -0.00000
C          0.40966        1.69840       -0.00000
H         -0.15147        2.62744       -0.00000
C          1.79945        1.68798        0.00000
H          2.33976        2.63020        0.00001
C          2.51407        0.48929        0.00000
H          3.59925        0.47284        0.00001
C          1.80482       -0.70848       -0.00000
C          0.40672       -0.73228       -0.00000
H         -0.10782       -1.68767       -0.00001
O          2.53289       -1.87319        0.00000
H          1.93452       -2.63897       -0.00000
