19
id_2155_ca.log	Energy: -426943.1149213
C          0.15839        1.30431        0.10366
H          0.65617        2.26259        0.20725
C         -1.22800        1.23228        0.14444
H         -1.83158        2.12180        0.27979
C         -1.82175       -0.01680        0.00392
C         -1.09524       -1.18852       -0.17158
H         -1.59798       -2.14112       -0.28816
C          0.29140       -1.10163       -0.20593
H          0.87345       -2.00361       -0.36664
C          0.91565        0.14195       -0.06501
C          2.40112        0.29049       -0.11525
O          2.96272        1.33578       -0.47357
N          3.12238       -0.78618        0.23045
H          2.78386       -1.53665        0.82426
O          4.49874       -0.66036        0.27021
H          4.65994        0.30011        0.14729
N         -3.28692       -0.10183        0.03653
O         -3.80500       -1.19954       -0.09693
O         -3.92165        0.92917        0.19551
