26
id_205_cb.log	Energy: -231963.5103440
C          3.85802       -0.04521        0.06973
H          3.94906       -0.15058        1.15638
H          4.63424        0.64872       -0.26528
H          4.06340       -1.02321       -0.37847
C          2.46670        0.45150       -0.31455
H          2.38937        0.54478       -1.40416
H          2.31485        1.45168        0.10474
C          1.39118       -0.50791        0.18301
H          1.41772       -0.53712        1.29041
H          1.64378       -1.51865       -0.16083
N          0.03679       -0.21319       -0.28835
C         -0.43632        1.05653        0.27290
H         -0.39945        1.01986        1.38035
H          0.23434        1.85839       -0.04625
C         -1.85930        1.37799       -0.17304
H         -2.16744        2.32967        0.27274
H         -1.86989        1.50822       -1.26245
C         -2.81845        0.25545        0.21707
H         -2.88669        0.20505        1.31238
H         -3.82640        0.45363       -0.16218
C         -2.28786       -1.07574       -0.31152
H         -2.31704       -1.07540       -1.40829
H         -2.90811       -1.91002        0.03295
C         -0.85194       -1.29501        0.14868
H         -0.46486       -2.23833       -0.25082
H         -0.83653       -1.38004        1.25354
