27
id_249_cb.log	Energy: -823168.5279463
C          4.58038       -0.92072       -0.34657
H          5.65019       -0.95040       -0.52815
C          3.85835       -2.11133       -0.23040
H          4.36750       -3.06552       -0.32432
C          2.48666       -2.08008        0.00735
H          1.91976       -3.00047        0.10561
C          1.82932       -0.85332        0.10695
C          2.55296        0.34054       -0.01179
C          3.93121        0.30493       -0.22951
H          4.48351        1.23575       -0.31143
C          1.85447        1.64330        0.10972
O          2.47863        2.69430        0.17391
C          0.35920        1.64446        0.10397
C         -0.28629        2.87945        0.02276
H          0.30737        3.78735        0.00941
C         -1.66977        2.93180       -0.05277
H         -2.18091        3.88687       -0.11614
C         -2.40715        1.74915       -0.08191
H         -3.48474        1.78765       -0.19254
C         -1.77628        0.51006        0.01088
C         -0.37663        0.44501        0.13879
C          0.36759       -0.82930        0.39039
O         -0.18722       -1.80918        0.85798
S         -2.87172       -0.93293       -0.13607
O         -2.21454       -1.86452       -1.08212
O         -4.13115       -0.37659       -0.69056
O         -3.06313       -1.47878        1.22921
