13
id_244_ca.log	Energy: -199602.3579807
C         -2.09250        1.79050       -0.00000
H         -2.46472        2.81068       -0.00000
C         -2.99722        0.73158       -0.00000
H         -4.06914        0.91016        0.00000
C         -2.51288       -0.57684        0.00000
C         -1.13938       -0.83187       -0.00000
H         -0.78816       -1.85857        0.00000
C         -0.26075        0.24566       -0.00000
C         -0.71562        1.56313        0.00000
H         -0.01923        2.39445        0.00000
I          1.82407       -0.13356        0.00000
O         -3.34396       -1.66665       -0.00000
H         -4.27254       -1.37783        0.00002
