12
id_2204_ca.log	Energy: -108952.4416351
C          1.52428       -0.58016        0.00000
H          1.02578       -1.54645        0.00001
H          2.60915       -0.60095        0.00000
C          0.87204        0.57803        0.00000
H          1.42075        1.51664       -0.00000
C         -0.61327        0.75457        0.00000
H         -0.94744        1.30099       -0.88415
H         -0.94744        1.30098        0.88417
N         -1.33234       -0.55178       -0.00001
H         -1.09233       -1.10819        0.82937
H         -1.09232       -1.10818       -0.82938
H         -2.34806       -0.40700       -0.00001
