27
id_299_cb.log	Energy: -419832.9520889
C          3.14141        2.19816        0.17275
H          2.94818        2.52848       -0.85143
H          3.78571        2.93564        0.65947
H          2.19403        2.15329        0.71641
C          3.82906        0.84927        0.17165
H          4.01894        0.48410        1.18274
H          4.76646        0.87435       -0.38389
O          3.02272       -0.12699       -0.52987
C          2.00814       -0.66046        0.14716
O          1.73522       -0.41142        1.30126
C          1.24297       -1.64626       -0.71730
H          1.83161       -2.56543       -0.78314
H          1.12167       -1.24252       -1.72828
O          0.01346       -1.99513       -0.13075
C         -0.97507       -1.02730       -0.12603
C         -2.20478       -1.42156        0.40217
H         -2.31474       -2.43565        0.77396
C         -3.26628       -0.53014        0.45117
H         -4.22004       -0.84812        0.86377
C         -3.12591        0.78099       -0.02687
C         -1.88816        1.16292       -0.55000
H         -1.75649        2.17577       -0.92106
C         -0.81593        0.27222       -0.60251
H          0.12557        0.62003       -1.01628
N         -4.21854        1.65963       -0.03878
H         -3.93556        2.63412       -0.00718
H         -4.87947        1.46976        0.70817
