44
id_2117_cb.log	Energy: -1051718.6301729
C         -2.89755        0.43647       -1.06920
H         -2.20919        1.18698       -1.44914
C         -4.25982        0.72206       -1.03703
H         -4.65224        1.66784       -1.39636
C         -5.11610       -0.23485       -0.51700
C         -4.67623       -1.45912       -0.03911
H         -5.38838       -2.18077        0.34792
C         -3.31193       -1.73223       -0.08612
H         -2.95386       -2.69718        0.25823
C         -2.40765       -0.78954       -0.59439
C         -0.96400       -1.06819       -0.62813
C         -0.14433       -1.68503        0.29632
C          1.18947       -1.58761       -0.23174
C          2.44483       -1.96270        0.25743
H          2.55486       -2.48016        1.20659
C          3.57084       -1.63790       -0.49924
C          3.47611       -0.95294       -1.73871
H          4.38369       -0.72214       -2.28744
C          2.24205       -0.58066       -2.23786
H          2.15145       -0.04804       -3.17981
C          1.11140       -0.89819       -1.47235
N         -0.20242       -0.62473       -1.69594
H         -0.55948       -0.08514       -2.47658
C          4.86780       -2.00522       -0.01126
N          5.92025       -2.30117        0.38254
C         -0.49243       -2.18491        1.67105
H         -1.29450       -2.92910        1.63823
H          0.38518       -2.70068        2.07915
C         -0.88691       -1.05731        2.63845
H         -1.05549       -1.49674        3.62757
H         -1.83654       -0.60654        2.32485
C          0.18237        0.03463        2.75054
H          1.18385       -0.40734        2.77692
H          0.04413        0.58212        3.69230
C          0.11585        1.09564        1.66180
O         -0.98404        1.62373        1.38504
N          1.31426        1.42067        1.13125
S          1.33504        2.62554        0.04686
O          0.49975        2.38271       -1.14424
O          1.16358        3.94816        0.68293
N          2.90069        2.61576       -0.52548
H          3.09274        1.71572       -0.97342
H          3.55636        2.74156        0.24785
F         -6.44330        0.03623       -0.47819
