28
id_2311_ca.log	Energy: -349791.0715064
C         -3.67911        0.37129        0.25019
H         -4.25627        1.29325        0.22334
H         -3.56928        0.01779        1.27712
H         -4.15674       -0.39758       -0.35944
O         -2.39257        0.70412       -0.29449
C         -1.51269       -0.29623       -0.34994
O         -1.76586       -1.42690        0.01294
C         -0.17681        0.18541       -0.87709
C          0.79566       -0.97353       -1.13645
H          1.29765       -0.87527       -2.09924
H          0.30504       -1.94507       -1.07564
N          1.86809       -0.94839       -0.08545
C          1.25644       -0.92217        1.28921
H          0.53727       -1.74196        1.32075
H          2.06037       -1.11937        1.99809
C          0.59840        0.45293        1.49857
H         -0.37997        0.32009        1.96949
H          1.20655        1.06839        2.16680
C          0.47009        1.15701        0.14018
H         -0.13887        2.05789        0.22709
C          1.87362        1.49988       -0.37443
H          2.30923        2.29844        0.23013
H          1.81655        1.84918       -1.40896
C          2.76091        0.24726       -0.27870
H          3.43096        0.27011        0.58206
H          3.34325        0.06882       -1.18264
H         -0.36535        0.72484       -1.80931
H          2.43144       -1.79958       -0.17833
