19
id_2390_cb.log	Energy: -333337.8996435
C         -2.93612       -0.99815       -0.00353
H         -3.86261       -0.42184       -0.03636
H         -2.96269       -1.62780        0.89444
H         -2.91951       -1.66798       -0.87165
C         -1.74903       -0.07546        0.00182
C         -1.91071        1.29272        0.00128
H         -2.92240        1.68955        0.00097
C         -0.81984        2.18298       -0.00076
H         -0.98403        3.25415       -0.00206
C          0.45257        1.67184       -0.00386
H          1.32049        2.31841       -0.00749
C          0.65182        0.27842       -0.00359
C         -0.43235       -0.63741        0.00201
N         -0.30581       -1.98220       -0.02224
H          0.60247       -2.40177        0.10411
H         -1.12210       -2.55238        0.14824
N          2.01231       -0.17261       -0.00123
O          2.91718        0.65766        0.01983
O          2.25368       -1.38220       -0.02309
