26
id_2026_cb.log	Energy: -362324.5678638
C          3.00158        0.02862       -1.25045
H          3.13667        1.11391       -1.30682
H          2.47331       -0.29813       -2.15364
H          3.99489       -0.43557       -1.24761
C          2.22814       -0.38122        0.01378
C          3.00130        0.09440        1.25503
H          3.99338       -0.37176        1.27814
H          2.47143       -0.18218        2.17393
H          3.13948        1.18069        1.25356
C          2.14551       -1.90972        0.05464
H          1.62438       -2.26414        0.95126
H          3.15931       -2.32463        0.06965
H          1.63105       -2.31287       -0.82497
C          0.84443        0.27444       -0.00412
C          0.73949        1.67502       -0.03077
H          1.63930        2.28542       -0.04169
C         -0.50206        2.30534       -0.04298
H         -0.55560        3.39038       -0.06483
C         -1.67481        1.55013       -0.02645
H         -2.64370        2.03939       -0.03298
C         -1.59803        0.15748       -0.00633
C         -0.34241       -0.46404        0.00293
H         -0.31422       -1.54781        0.01886
C         -2.86416       -0.68525        0.00407
O         -2.73653       -1.93514       -0.12409
O         -3.96642       -0.08284        0.13798
