23
id_224_cb.log	Energy: -207304.0509750
C         -2.82775       -0.13842       -0.22851
H         -2.88593       -1.17290        0.12238
H         -2.84477       -0.14553       -1.32299
H         -3.72258        0.38325        0.12317
C         -1.58067        0.56424        0.28814
H         -1.56637        0.51909        1.39448
H         -1.62940        1.62275        0.01379
N         -0.34382        0.00696       -0.25164
C         -0.16151       -1.39507        0.14152
H         -0.40052       -1.52462        1.21368
H         -0.82090       -2.05558       -0.42699
C          1.32694       -1.67682       -0.10832
H          1.73020       -2.35189        0.64983
H          1.47506       -2.14932       -1.08247
C          1.98501       -0.27979       -0.06884
H          2.37097       -0.00446       -1.05630
H          2.81296       -0.21280        0.64131
C          0.84415        0.66828        0.31448
C          1.04742        2.09125       -0.17577
H          1.08508        2.11443       -1.27022
H          1.99545        2.48273        0.20710
H          0.25237        2.76377        0.15951
H          0.75351        0.68032        1.41894
