17
id_2316_ca.log	Energy: -309351.5205278
C          1.87672       -1.59380        0.00000
H          2.63705       -2.36880        0.00000
C          0.54849       -1.93210       -0.00000
H          0.21523       -2.96475       -0.00000
C         -0.42389       -0.89881        0.00000
C         -0.03218        0.46948        0.00000
C         -1.07566        1.41146        0.00000
H         -0.90250        2.48387        0.00000
C         -2.36586        0.94018       -0.00000
H         -3.21695        1.61101       -0.00000
N         -2.67786       -0.38105       -0.00000
N         -1.73647       -1.27256       -0.00000
C          1.36453        0.77614        0.00000
C          2.28954       -0.23825        0.00000
H          3.34544        0.01426        0.00001
O          1.82812        2.06045       -0.00002
H          1.10693        2.71032        0.00009
