20
id_237_ca.log	Energy: -287123.4075853
C          2.70982       -0.99344        0.00234
H          3.56614       -1.66068        0.00362
C          2.93535        0.41569        0.00232
H          3.95261        0.79135        0.00384
C          1.87902        1.27839        0.00092
H          2.02088        2.35476        0.00153
C          0.54913        0.76108       -0.00134
C         -0.55707        1.59983        0.00068
H         -0.48186        2.68085        0.00507
N         -1.79243        1.09241       -0.00251
C         -2.06937       -0.25066       -0.00182
C         -1.00188       -1.13206        0.00074
H         -1.20249       -2.19788        0.00696
C          0.31549       -0.65091       -0.00186
C          1.44682       -1.51756        0.00083
H          1.28315       -2.59048        0.00104
N         -3.37477       -0.61365       -0.06588
H         -4.06431        0.04514        0.28051
H         -3.57022       -1.58112        0.16455
H         -2.57736        1.74464       -0.00530
