25
id_294_cb.log	Energy: -372362.4350915
C          5.22102       -0.14395        0.24257
H          5.28602       -0.92350        1.00770
H          5.45774       -0.58433       -0.73077
H          5.96830        0.62312        0.46601
C          3.84329        0.47917        0.22756
H          3.77296        1.26160       -0.53821
H          3.60050        0.92307        1.20097
O          2.90398       -0.55544       -0.06703
C          1.57530       -0.20530       -0.13921
C          1.08790        1.08482        0.06314
H          1.75386        1.90850        0.29595
C         -0.28703        1.32662       -0.04122
H         -0.65687        2.33806        0.10928
C         -1.20151        0.30981       -0.33419
C         -0.68004       -0.98293       -0.53922
H         -1.35918       -1.79481       -0.78617
C          0.68117       -1.23840       -0.44461
H          1.07100       -2.23953       -0.60994
N         -2.56524        0.61725       -0.51096
C         -3.44632       -0.05176        0.20444
O         -3.20652       -0.92167        1.11634
C         -4.90665        0.25869       -0.05720
H         -5.42273       -0.65719       -0.36611
H         -5.37957        0.60070        0.86994
H         -5.03767        1.01989       -0.82875
