27
id_2225_ca.log	Energy: -232256.0437305
C         -2.11477       -0.45974        1.24849
H         -1.43926       -1.13718        1.76827
H         -3.13195       -0.84900        1.28046
H         -2.08267        0.53413        1.69342
N         -1.71430       -0.35478       -0.18482
C         -2.58762        0.62433       -0.89358
H         -2.44259        1.60933       -0.45143
H         -3.62319        0.30840       -0.76927
H         -2.31839        0.63261       -1.94915
C         -0.23584       -0.08222       -0.40721
H         -0.16335        0.13487       -1.47895
C          0.58686       -1.33214       -0.10644
H          0.50930       -1.58405        0.95825
H          0.20087       -2.18058       -0.68306
C          2.05560       -1.06714       -0.45334
H          2.64947       -1.95633       -0.22108
H          2.14385       -0.89169       -1.53338
C          2.58847        0.15034        0.30405
H          2.58167       -0.06385        1.38120
H          3.62771        0.34608        0.02045
C          1.72639        1.38429        0.03343
H          1.79849        1.65449       -1.02819
H          2.08860        2.24107        0.60960
C          0.25771        1.12195        0.38708
H         -0.34700        2.00885        0.17317
H          0.18127        0.90990        1.46036
H         -1.89359       -1.27174       -0.61181
