27
id_2026_ca.log	Energy: -362607.6588900
C          3.04717        0.06219       -1.25390
H          3.18018        1.14880       -1.28115
H          2.51875       -0.24180       -2.16480
H          4.04121       -0.39978       -1.26350
C          2.27725       -0.38435        0.00000
C          3.04716        0.06219        1.25390
H          4.04120       -0.39977        1.26351
H          2.51874       -0.24179        2.16480
H          3.18017        1.14880        1.28115
C          2.19648       -1.91324        0.00000
H          1.67973       -2.29267        0.88887
H          3.21094       -2.32626        0.00000
H          1.67973       -2.29267       -0.88886
C          0.89260        0.26693       -0.00000
C          0.78114        1.66816       -0.00000
H          1.68020        2.27939       -0.00001
C         -0.45809        2.30287       -0.00000
H         -0.50951        3.38750       -0.00000
C         -1.63199        1.55243        0.00000
H         -2.59961        2.04251        0.00000
C         -1.53957        0.16015        0.00000
C         -0.29005       -0.47335        0.00000
H         -0.26744       -1.55774        0.00000
C         -2.75427       -0.69393       -0.00000
O         -2.73924       -1.91360       -0.00001
O         -3.89992        0.00242        0.00001
H         -4.64792       -0.62541        0.00000
