18
id_2387_cb.log	Energy: -1031665.6833963
C         -3.87445        0.43649       -0.00809
H         -4.92287        0.13176       -0.01280
H         -3.67032        1.02073       -0.90765
H         -3.68203        1.03330        0.88575
S         -2.91529       -1.09708        0.00816
C         -1.24402       -0.49841        0.00501
C         -0.90030        0.85188        0.00405
H         -1.65222        1.63254        0.00601
C          0.43930        1.22042        0.00098
C          1.49561        0.29878        0.00153
C          1.10082       -1.05111       -0.00019
C         -0.22284       -1.45343        0.00272
H         -0.45302       -2.51463        0.00307
Cl         2.34802       -2.27705       -0.00843
N          2.82221        0.68319       -0.07147
H          3.47500        0.00115        0.29912
H          3.00920        1.60732        0.30219
Cl         0.82966        2.92594       -0.00580
