20
id_2264_cb.log	Energy: -1890212.3179905
C         -2.38547        2.28400       -0.02540
H         -3.20327        2.99680       -0.05230
C         -1.05032        2.74294        0.01287
H         -0.84547        3.80877        0.02519
C         -0.00988        1.84852        0.02437
H          1.01310        2.20750        0.04312
C         -0.24568        0.44798        0.00749
C         -1.59655       -0.01765       -0.00511
C         -2.64714        0.93655       -0.03535
H         -3.67689        0.59892       -0.08515
C         -1.86923       -1.42812        0.00120
C         -0.81221       -2.31580       -0.01815
H         -1.01143       -3.38341       -0.01524
C          0.52067       -1.86214       -0.02919
H          1.32859       -2.58598       -0.04148
C          0.79616       -0.52171       -0.00589
Br         2.61653        0.03036        0.00420
N         -3.18389       -1.88274       -0.04081
H         -3.83623       -1.34422        0.51918
H         -3.26200       -2.86937        0.18439
