19
id_2079_ca.log	Energy: -1200960.1988259
C         -0.13667       -0.70510       -0.40121
H         -0.78024       -1.55280       -0.60873
C         -0.63718        0.59311       -0.33579
C          0.24752        1.64702       -0.06222
C          1.59681        1.41263        0.14038
H          2.26701        2.24003        0.34917
C          2.09237        0.11249        0.07358
C          1.22192       -0.93958       -0.19858
Cl         1.79658       -2.57458       -0.28974
Cl         3.78805       -0.15376        0.33246
Cl        -0.35929        3.27148        0.01882
O         -1.94036        0.92837       -0.52327
C         -2.86803       -0.09016       -0.82818
H         -3.78444        0.41772       -1.13925
H         -2.52881       -0.72376       -1.65441
C         -3.18796       -0.93140        0.38999
O         -2.76718       -0.71645        1.50608
O         -4.01097       -1.93222        0.07483
H         -4.22889       -2.44625        0.87799
