31
id_27_ca.log	Energy: -481508.5724815
C         -3.64556        0.08029        1.82572
H         -3.10458        0.59541        2.62412
H         -3.53603       -0.99833        1.97314
H         -4.70690        0.33317        1.90359
C         -3.08324        0.50984        0.47233
C         -1.60527        0.18635        0.33243
C         -1.17786       -1.17010        0.34044
H         -1.91951       -1.96225        0.42687
C          0.15328       -1.49195        0.23904
H          0.46980       -2.53209        0.24309
C          1.14123       -0.47495        0.12737
C          2.52616       -0.79014        0.02661
H          2.82208       -1.83400        0.03617
C          3.44833        0.22527       -0.08054
C          3.03304        1.58645       -0.09282
H          3.79304        2.35764       -0.17993
C          1.70527        1.90254        0.00320
H          1.38806        2.94230       -0.00606
C          0.71804        0.88218        0.11673
C         -0.66582        1.18439        0.21776
H         -0.97473        2.22808        0.20507
O          4.79803        0.04129       -0.18247
C          5.27553       -1.29928       -0.16765
H          4.87053       -1.86444       -1.01356
H          5.00950       -1.79514        0.77180
H          6.35958       -1.23165       -0.25487
C         -3.84830       -0.13772       -0.66417
O         -4.67867       -1.01821       -0.54356
O         -3.50599        0.36410       -1.86081
H         -4.02147       -0.08681       -2.55777
H         -3.20544        1.59169        0.34435
