22
id_2038_ca.log	Energy: -313432.1636126
C         -1.84905       -1.49766       -0.21042
H         -1.93240       -1.54676       -1.30462
H         -2.33445       -2.39342        0.19196
C         -2.55152       -0.23688        0.29657
H         -2.54840       -0.23730        1.39534
H         -3.59936       -0.22911       -0.02146
C         -1.84382        1.02147       -0.21190
H         -1.90051        1.06637       -1.30834
H         -2.32291        1.92576        0.18212
C         -0.37520        1.02208        0.19405
C          0.32758       -0.22435       -0.33220
C         -0.37134       -1.49978        0.18221
H          0.13826       -2.38131       -0.22101
H         -0.27820       -1.53512        1.27586
C          1.76831       -0.24460        0.10733
O          2.15842        0.04502        1.22445
O          2.60452       -0.66581       -0.85298
H          3.51255       -0.70344       -0.49270
O          0.32415        2.14785       -0.34035
H         -0.06162        2.95504        0.03754
H         -0.29694        1.03445        1.29089
H          0.29745       -0.21334       -1.42843
