38
id_2125_cb.log	Energy: -495024.8206797
C         -3.95906       -0.79597       -0.12632
H         -4.65181       -0.19854        0.47541
H         -4.51568       -1.63019       -0.56403
H         -3.60159       -0.15761       -0.94866
N         -2.90745       -1.32163        0.73421
C         -2.04597       -2.27378        0.02941
H         -1.36175       -2.73369        0.75241
H         -2.70737       -3.07194       -0.32449
C         -1.22772       -1.79059       -1.18182
H         -1.68223       -0.89662       -1.62765
H         -1.22202       -2.57207       -1.94561
O          0.15547       -1.55901       -0.92475
C          0.44991       -0.65276        0.13107
C         -0.31731        0.65386       -0.02144
C          0.18194        1.65785       -0.85555
H          1.14307        1.51503       -1.34275
C         -0.52592        2.83821       -1.06066
H         -0.12066        3.60893       -1.70902
C         -1.75070        3.02511       -0.42378
H         -2.30931        3.94483       -0.56838
C         -2.25693        2.02423        0.40002
H         -3.21540        2.16526        0.89475
C         -1.56150        0.82779        0.60811
C         -2.21425       -0.25112        1.45961
H         -2.96247        0.23689        2.09363
H         -1.48907       -0.71752        2.13221
C          1.95039       -0.44518        0.17120
C          2.51871        0.10053        1.32621
H          1.87851        0.34230        2.17194
C          3.88797        0.33348        1.39919
H          4.31692        0.75477        2.30329
C          4.70814        0.02197        0.31375
H          5.77747        0.20097        0.36917
C          4.14722       -0.52131       -0.83863
H          4.77849       -0.76677       -1.68742
C          2.77294       -0.75360       -0.91188
H          2.34012       -1.17801       -1.81125
H          0.16614       -1.11470        1.08406
