20
id_2265_cb.log	Energy: -283504.3425592
C          3.07231       -2.29063        0.00455
H          3.91794       -2.97128        0.00735
C          1.75441       -2.80766        0.00299
H          1.59530       -3.88102        0.00461
C          0.67759       -1.95662       -0.00035
H         -0.32890       -2.36138       -0.00108
C          0.85602       -0.54793       -0.00296
C          2.18677       -0.02369       -0.00227
C          3.27951       -0.93573        0.00240
H          4.28705       -0.52877        0.00344
C          2.41493        1.37271       -0.00197
H          3.43811        1.73962        0.00292
C          1.36299        2.26350       -0.00870
C          0.03131        1.75548       -0.00860
H         -0.79228        2.46253       -0.01220
C         -0.20126        0.40824       -0.00452
I         -2.24250       -0.21657        0.00125
N          1.55276        3.63824       -0.07873
H          0.80093        4.18011        0.33380
H          2.45764        3.94459        0.26266
