26
id_2095_cb.log	Energy: -372665.7691710
C         -0.69727       -1.93326        0.05562
H         -0.33416       -2.95961        0.07486
C         -2.07441       -1.69529        0.01909
H         -2.77637       -2.52651        0.00866
C         -2.58214       -0.38240       -0.01648
C         -1.61219        0.65696       -0.01239
C         -0.24152        0.44082        0.03517
C          0.22844       -0.88951        0.06787
C          1.71198       -1.18999        0.13893
H          1.94383       -2.08794       -0.44508
H          2.01307       -1.39314        1.17783
C          2.52933       -0.01132       -0.36380
C          2.13527        1.26580        0.35817
H          2.22898        1.09731        1.43932
H          2.80830        2.08565        0.08477
C          0.69450        1.63063       -0.00105
H          0.67393        2.07150       -1.00733
H          0.33610        2.41013        0.67940
N          3.98428       -0.29300       -0.13012
H          4.57134        0.47663       -0.47166
H          4.27998       -1.15241       -0.60784
H          4.17622       -0.41106        0.87264
O         -2.10618        1.94718       -0.06868
H         -3.07951        1.82661       -0.08671
O         -3.85675       -0.05337       -0.06244
H          2.41990        0.10874       -1.44579
