23
id_2173_cb.log	Energy: -384727.5801702
C          2.43492        2.85037        0.08033
H          3.09056        2.77511       -0.79425
H          3.06654        2.73894        0.96867
H          1.99355        3.85049        0.09519
C          1.37057        1.78711        0.04390
C          0.03128        2.09335        0.05300
H         -0.29298        3.13205        0.08384
C         -0.96159        1.07493        0.01165
C         -2.34442        1.40645       -0.01319
H         -2.62612        2.45658        0.01213
C         -3.30298        0.42459       -0.07590
H         -4.35648        0.68829       -0.09681
C         -2.91765       -0.93808       -0.12289
H         -3.67960       -1.70970       -0.18655
C         -1.58861       -1.28994       -0.09245
H         -1.30340       -2.33579       -0.13303
C         -0.57167       -0.29651       -0.01442
C          0.82872       -0.60199       -0.00881
C          1.75173        0.41720        0.00056
H          2.81197        0.17117       -0.00973
C          1.34315       -2.03152        0.02375
O          0.84399       -2.81161        0.88068
O          2.26291       -2.33124       -0.78726
