23
id_2167_ca.log	Energy: -300973.6026965
C         -2.52131       -0.44024       -0.15747
H         -2.46905       -1.48200       -0.50374
H         -3.58188       -0.17888       -0.07604
C         -1.84313       -0.33397        1.20981
H         -1.97724        0.68102        1.61051
H         -2.31578       -1.01344        1.92673
C         -0.35500       -0.68095        1.11083
H          0.14692       -0.56729        2.08008
H         -0.24971       -1.72841        0.80932
C          0.38459        0.15375        0.05877
C         -0.34024        0.13645       -1.29361
H          0.16631        0.82211       -1.98438
H         -0.22275       -0.87612       -1.69442
C         -1.83304        0.46277       -1.18262
H         -1.98131        1.51515       -0.90255
H         -2.29132        0.34248       -2.16986
C          1.84651       -0.33018       -0.10671
O          1.99665       -1.52490       -0.46166
O          2.75861        0.50739        0.12020
N          0.45996        1.57749        0.54440
H          1.03756        2.13701       -0.09349
H          0.90837        1.61997        1.46679
H         -0.46217        2.02013        0.61793
