28
id_225_ca.log	Energy: -303215.2157227
C          4.34564       -0.46012       -0.18327
H          4.56297       -1.00575       -1.10681
H          4.68364       -1.08575        0.64982
H          4.93616        0.45923       -0.17826
C          2.87438       -0.16311       -0.06577
C          1.93197       -1.19275       -0.19197
H          2.27335       -2.20664       -0.38485
C          0.57326       -0.93653       -0.06663
H         -0.14214       -1.75203       -0.15944
C          0.11815        0.36447        0.17909
C          1.04829        1.39431        0.29782
H          0.70539        2.40829        0.48618
C          2.41248        1.13030        0.18039
H          3.12751        1.94257        0.28007
C         -1.35518        0.64970        0.30336
C         -2.16764       -0.27925        1.24062
H         -1.52459       -1.02861        1.70441
H         -2.61153        0.32468        2.03418
C         -3.26091       -0.91989        0.36869
H         -4.18850       -1.09658        0.91437
H         -2.91548       -1.87147       -0.04728
C         -3.45673        0.08227       -0.75619
H         -3.98497        0.97798       -0.42536
H         -3.91134       -0.31247       -1.66353
N         -2.04530        0.49066       -1.04709
H         -1.58292       -0.25285       -1.58520
H         -1.50798        1.69522        0.57335
H         -1.98472        1.35298       -1.59890
