18
id_2301_ca.log	Energy: -299314.1982814
C         -2.67311       -0.99579       -0.00000
H         -3.52760       -1.66664       -0.00000
C         -2.89524        0.40872        0.00000
H         -3.91186        0.78954        0.00000
C         -1.82939        1.27294        0.00000
H         -1.97778        2.35006        0.00000
C         -0.50361        0.76216        0.00000
C          0.63203        1.60732       -0.00000
H          0.48784        2.68615       -0.00000
N          1.87630        1.17564        0.00000
C          2.07095       -0.16212        0.00000
C          1.06145       -1.09678       -0.00000
H          1.28739       -2.15965       -0.00000
C         -0.27725       -0.64050       -0.00000
C         -1.40121       -1.51349       -0.00000
H         -1.23493       -2.58745       -0.00000
O          3.39337       -0.50315       -0.00000
H          3.48817       -1.47117        0.00002
