27
id_2179_cb.log	Energy: -588865.2718064
C         -2.91365       -1.91976        0.98243
H         -3.51245       -2.83371        0.89753
H         -3.49254       -1.18483        1.55329
H         -2.01418       -2.15421        1.56246
C         -2.55680       -1.35841       -0.39926
H         -3.48600       -1.08328       -0.91250
H         -2.09231       -2.13941       -1.00663
C         -1.67958       -0.12845       -0.31428
C         -2.28302        1.12783       -0.29740
H         -3.36600        1.17545       -0.41101
C         -1.57864        2.32977       -0.13967
H         -2.11335        3.27755       -0.14028
C         -0.17681        2.35234        0.02122
C          0.42499        1.06106       -0.00291
C         -0.26503       -0.15944       -0.16601
C          0.66230       -1.29115       -0.15739
C          1.95872       -0.90430        0.01691
S          2.14300        0.82532        0.16884
C          3.18099       -1.77719        0.06125
H          3.08115       -2.55745        0.82298
H          4.07538       -1.19426        0.29730
H          3.34926       -2.27102       -0.90230
C          0.29954       -2.73740       -0.36722
H         -0.48235       -3.07447        0.31983
H         -0.05995       -2.91474       -1.38736
H          1.17356       -3.37563       -0.21235
O          0.52672        3.44444        0.17394
