34
id_2331_cb.log	Energy: -838724.4777368
C          2.58528       -2.09345       -2.08693
H          3.09291       -1.94426       -3.04365
H          1.65693       -2.64309       -2.26729
H          3.23126       -2.68907       -1.43698
C          2.28990       -0.75187       -1.46385
H          1.62860       -0.14985       -2.09077
H          3.20349       -0.18896       -1.25402
O          1.60707       -1.00888       -0.20156
P          1.24473        0.19648        0.77130
O          2.33666        0.77411        1.60135
O          0.62373        1.24936       -0.25936
C          0.37472        2.60629        0.18973
H         -0.39389        2.57643        0.96915
H          1.29839        3.00604        0.61472
C         -0.08053        3.40404       -1.00828
H         -0.26799        4.43764       -0.70551
H         -1.00366        2.99063       -1.42346
H          0.68979        3.40221       -1.78408
S         -0.19185       -0.61851        2.02304
C         -1.14022       -1.79076        0.96759
H         -0.48851       -2.13451        0.16298
H         -1.32133       -2.64574        1.62341
C         -2.47943       -1.27051        0.47230
H         -3.09109       -0.98224        1.33371
H         -2.98603       -2.12954       -0.00995
N         -2.40738       -0.13421       -0.43516
C         -3.76420        0.28995       -0.76277
H         -3.72970        1.15626       -1.42930
H         -4.29721        0.57535        0.14861
H         -4.34008       -0.50760       -1.26457
C         -1.71571       -0.49538       -1.66765
H         -0.67793       -0.77494       -1.46902
H         -1.70368        0.36443       -2.34372
H         -2.20841       -1.33728       -2.18660
