9
id_2008_ca.log	Energy: -455972.1105912
C          0.16463       -0.53250       -0.00001
H         -0.03140       -1.59944       -0.00002
C         -0.80813        0.37698        0.00000
H         -0.64578        1.44903        0.00001
Cl        -2.47636       -0.07062        0.00000
C          1.58726       -0.14239       -0.00000
O          2.49481       -0.95649        0.00001
O          1.79916        1.17998       -0.00001
H          2.76109        1.35055        0.00001
