21
id_2017_cb.log	Energy: -360188.7224584
C         -4.09888       -0.78032       -0.44928
H         -5.10400       -0.45093       -0.71207
H         -4.12679       -1.32554        0.50003
H         -3.70622       -1.42995       -1.23868
O         -3.31853        0.40355       -0.33213
C         -1.99485        0.25547       -0.00700
C         -1.25175        1.43664        0.09471
H         -1.74646        2.38758       -0.08235
C          0.09740        1.38119        0.42251
H          0.66516        2.30549        0.50092
C          0.73718        0.15674        0.65816
C         -0.02227       -1.00935        0.55478
H          0.45099       -1.97239        0.73514
C         -1.38011       -0.97627        0.22445
H         -1.93671       -1.90417        0.15580
C          2.21509        0.08847        0.96294
H          2.42202       -0.72148        1.66683
H          2.54578        1.03322        1.40742
C          3.02248       -0.14048       -0.32449
O          3.63374       -1.23850       -0.45261
O          3.00860        0.78565       -1.18448
