13
id_2313_ca.log	Energy: -255122.5346857
C          0.69487       -1.19858       -0.00000
H          1.25633       -2.12897       -0.00000
C         -0.69953       -1.21610        0.00000
H         -1.25089       -2.15090        0.00000
C         -1.37679       -0.00868       -0.00000
C         -0.72422        1.21410        0.00000
H         -1.29580        2.13668        0.00000
C          0.66823        1.22549        0.00000
H          1.21418        2.16385        0.00001
C          1.37283        0.02083        0.00000
O          2.74580        0.09485       -0.00001
H          3.12567       -0.79969        0.00006
F         -2.73647       -0.02247       -0.00000
