42
id_2197_ca.log	Energy: -519977.9652000
C          3.42931        1.00538        0.76521
H          2.47031        0.86693        1.26587
H          3.31088        1.57353       -0.15799
H          4.11934        1.50949        1.44125
N          4.00761       -0.32545        0.42330
C          5.41530       -0.18235       -0.04677
H          5.40817        0.43616       -0.94495
H          5.81056       -1.17352       -0.26612
H          5.99570        0.29511        0.74167
C          3.19918       -1.08569       -0.58894
H          3.24258       -0.51180       -1.51742
H          3.71427       -2.03640       -0.72734
C          1.76432       -1.30621       -0.14388
H          1.70216       -1.55766        0.92052
H          1.37901       -2.17725       -0.68824
C          0.83495       -0.14946       -0.47989
O          1.05632        0.57967       -1.42676
C         -0.38680        0.01547        0.41998
H          0.00554        0.02069        1.44537
C         -1.10256        1.33024        0.18031
C         -0.98502        2.35861        1.11692
H         -0.39414        2.19684        2.01514
C         -1.61872        3.58352        0.91105
H         -1.52177        4.37193        1.65126
C         -2.37389        3.79232       -0.23994
H         -2.86935        4.74443       -0.40302
C         -2.49266        2.77061       -1.18250
H         -3.07907        2.92676       -2.08286
C         -1.86185        1.54763       -0.97335
H         -1.96449        0.75528       -1.71020
C         -1.29818       -1.19907        0.29290
C         -1.50520       -1.83254       -0.93628
H         -0.98133       -1.48242       -1.82361
C         -2.37705       -2.91552       -1.03433
H         -2.52633       -3.40018       -1.99417
C         -3.05230       -3.37417        0.09449
H         -3.73075       -4.21811        0.01841
C         -2.85021       -2.74703        1.32333
H         -3.37079       -3.10077        2.20795
C         -1.97664       -1.66749        1.42100
H         -1.81812       -1.17804        2.37862
H          4.02189       -0.88560        1.28499
