13
id_2164_cb.log	Energy: -286377.7080776
C          0.61037        1.08534       -0.43387
H          1.11922        2.03555       -0.22621
H          0.63308        0.94005       -1.51668
C         -0.80989        1.11153        0.10329
H         -1.36720        1.92440       -0.37511
H         -0.81738        1.31915        1.17816
C         -1.58735       -0.18571       -0.13805
O         -1.06075       -1.07994       -0.85654
O         -2.73059       -0.26650        0.39831
C          1.43913        0.01175        0.21154
O          1.22624       -0.48109        1.30493
O          2.50149       -0.34173       -0.53137
H          3.02769       -1.00259       -0.04031
