17
id_2041_ca.log	Energy: -449436.9872674
C          1.21569        1.54257       -0.00000
H          2.08149        2.19466       -0.00000
C         -0.05648        2.06688       -0.00000
H         -0.22099        3.13882       -0.00000
C         -1.18735        1.22950       -0.00000
C         -0.97699       -0.16835       -0.00000
C          0.30399       -0.71345       -0.00000
H          0.44170       -1.78803        0.00000
C          1.37738        0.15071       -0.00000
N          2.72141       -0.40873       -0.00000
O          3.66602        0.36708        0.00001
O          2.84596       -1.62472       -0.00001
N         -2.09048       -1.09493        0.00000
O         -3.23312       -0.63342       -0.00000
O         -1.86300       -2.29048        0.00001
O         -2.37642        1.82858        0.00000
H         -3.09167        1.15665        0.00000
