21
id_217_cb.log	Energy: -544920.8394811
C         -1.69352       -1.60798       -0.12886
H         -2.42762       -2.40320       -0.06941
C         -0.34521       -1.89297       -0.30116
H         -0.02720       -2.92874       -0.36230
C          0.62523       -0.88771       -0.39542
C          0.15922        0.43102       -0.28153
C         -1.17073        0.76600       -0.08502
H         -1.48209        1.80003        0.00522
C         -2.08021       -0.27734       -0.02489
N         -3.49525        0.04325        0.16230
O         -4.28925       -0.88156        0.23323
O         -3.81542        1.21920        0.23928
N          1.09172        1.56055       -0.36002
O          2.04645        1.47000       -1.11353
O          0.85465        2.54296        0.32362
C          2.06998       -1.26383       -0.55092
H          2.43583       -0.98642       -1.54352
H          2.15925       -2.35178       -0.46917
C          3.02462       -0.64535        0.49224
O          2.53029       -0.01247        1.46117
O          4.25205       -0.84908        0.29080
