26
id_2318_cb.log	Energy: -2139662.9080459
C          3.47494        0.97055        0.80962
H          4.32833        1.24985        1.41845
C          2.41216        1.84242        0.64731
C          1.29439        1.51121       -0.13287
C          1.23321        0.23900       -0.74260
C          2.34043       -0.61269       -0.61504
C          3.44516       -0.25751        0.16480
Cl         4.81417       -1.31676        0.35089
Cl         2.39668       -2.12374       -1.48071
C         -0.00350       -0.13675       -1.53929
H          0.14664       -1.11534       -1.99564
H         -0.12304        0.58049       -2.35784
C         -1.30193       -0.15890       -0.75269
C         -2.18116        0.95868       -0.88401
C         -3.44334        0.85164       -0.24957
C         -3.81329       -0.24634        0.50685
H         -4.78621       -0.27967        0.98685
C         -2.92240       -1.30246        0.66318
C         -1.67763       -1.25034        0.03200
Cl        -0.56704       -2.58065        0.22453
Cl        -3.40178       -2.66342        1.64190
Cl        -4.56881        2.17665       -0.41091
O         -1.80785        2.02486       -1.53544
O          0.33601        2.44156       -0.25883
H         -0.45008        2.22726       -0.88726
Cl         2.47484        3.39938        1.42391
