24
id_2419_ca.log	Energy: -348631.0436698
C         -3.54984       -0.71121       -0.00001
H         -3.99812       -0.24362        0.88299
H         -3.82719       -1.76855       -0.00002
H         -3.99812       -0.24360       -0.88299
C         -2.05082       -0.56333        0.00000
C         -1.25248       -1.73830        0.00001
H         -1.75128       -2.70603       -0.00001
N          0.06186       -1.75746        0.00000
C          0.69807       -0.55420       -0.00000
C          0.01753        0.68813        0.00000
C         -1.41316        0.66451        0.00000
C         -2.17216        1.96125        0.00000
H         -1.91486        2.55902        0.88168
H         -3.25059        1.80054        0.00000
H         -1.91486        2.55902       -0.88167
C          0.78000        1.88853       -0.00000
H          0.27598        2.84918        0.00000
C          2.15475        1.83064       -0.00000
H          2.73333        2.74977       -0.00000
C          2.84311        0.59449       -0.00000
H          3.92830        0.56004        0.00000
C          2.12476       -0.57578       -0.00000
O          2.76574       -1.78053       -0.00000
H          2.07986       -2.47768       -0.00000
