17
id_246_ca.log	Energy: -309379.4098165
C          1.84058        1.16312        0.00001
H          2.70191        1.82573        0.00000
C          0.56480        1.66028        0.00000
H          0.38509        2.73202        0.00000
C         -0.54072        0.77184       -0.00000
C         -1.88434        1.20000       -0.00001
H         -2.10881        2.26540       -0.00000
N         -2.90245        0.36249        0.00000
C         -2.57918       -0.95984        0.00001
H         -3.42220       -1.64454       -0.00001
N         -1.38232       -1.49457       -0.00000
C         -0.32102       -0.62931       -0.00001
C          0.99716       -1.13120        0.00000
H          1.17513       -2.20204       -0.00000
C          2.05135       -0.24339        0.00001
O          3.31519       -0.75130       -0.00000
H          3.96892       -0.03063       -0.00001
