40
id_2212_cb.log	Energy: -924360.7396624
C         -4.06739       -2.36853       -1.04323
H         -4.19619       -1.86009       -2.00333
H         -4.93573       -2.14031       -0.41789
H         -4.05818       -3.44542       -1.23795
C         -2.78013       -1.95685       -0.34026
H         -1.91158       -2.25872       -0.95104
H         -2.70859       -2.51409        0.59771
N         -2.73507       -0.51847       -0.03486
C         -2.34201        0.22673       -1.23855
H         -1.28991        0.01872       -1.50482
H         -2.94776       -0.15432       -2.06581
C         -2.56001        1.73184       -1.14559
H         -2.36292        2.18706       -2.12130
H         -1.89508        2.21564       -0.42269
H         -3.59463        1.95696       -0.86770
C         -1.84058       -0.20384        1.10566
C         -2.42905       -0.66948        2.43565
H         -1.81938       -0.28473        3.25943
H         -2.44865       -1.76027        2.52283
H         -3.44904       -0.29280        2.55395
C         -0.45391       -0.77175        0.91646
H         -0.37789       -1.85110        1.05944
C          0.65696       -0.11304        0.53377
C          1.91459       -0.81855        0.23057
C          3.19166       -0.32093        0.26707
H          3.41390        0.70369        0.54424
C          4.18409       -1.28815       -0.07203
H          5.24816       -1.08356       -0.08922
C          3.64791       -2.50462       -0.37327
H          4.16114       -3.41131       -0.66610
S          1.92710       -2.49136       -0.25269
C          0.68199        1.36002        0.39371
C          0.33683        2.30212        1.32422
H          0.03883        2.04051        2.33423
C          0.40872        3.63898        0.82612
H          0.17656        4.51896        1.41451
C          0.81088        3.68914       -0.47589
H          0.95960        4.56168       -1.09871
S          1.12040        2.11637       -1.11016
H         -1.78037        0.88391        1.14336
