42
id_2133_ca.log	Energy: -590213.9244977
C          3.42517       -2.87598        0.52050
H          2.45799       -2.75156        1.02010
H          4.20664       -2.54120        1.21070
H          3.57146       -3.94390        0.32953
C          3.48482       -2.07798       -0.78782
H          2.72404       -2.46051       -1.48054
H          4.45826       -2.23164       -1.26528
C          3.27426       -0.60227       -0.56622
C          4.31718        0.31768       -0.56601
H          5.32533       -0.03890       -0.76638
C          4.10814        1.69236       -0.31772
H          4.95994        2.36662       -0.33259
C          2.83990        2.18995       -0.05878
H          2.68279        3.24876        0.13113
C          1.75652        1.29240       -0.04621
C          1.99609       -0.08252       -0.30134
N          0.78326       -0.73664       -0.24673
H          0.64655       -1.73803       -0.32863
C         -0.19691        0.18071        0.05524
C          0.34189        1.43250        0.17394
C         -0.51606        2.62693        0.45923
H         -0.22335        3.48636       -0.15521
H         -0.43639        2.93609        1.50949
C         -1.95784        2.24726        0.13300
H         -2.09589        2.17784       -0.95378
H         -2.66690        2.97843        0.52628
O         -2.31782        1.00469        0.74853
C         -1.64726       -0.15741        0.25678
C         -1.82410       -1.24128        1.32889
H         -2.89900       -1.36811        1.50241
H         -1.45255       -2.18866        0.91993
C         -1.11964       -0.92221        2.64431
H         -0.03264       -0.87430        2.51726
H         -1.33598       -1.69929        3.38359
H         -1.45662        0.03506        3.05405
C         -2.25943       -0.60574       -1.09872
H         -1.79687       -1.55064       -1.39505
H         -2.05352        0.14681       -1.86353
C         -3.74368       -0.81628       -0.99749
O         -4.28218       -1.87093       -0.71163
O         -4.44288        0.29969       -1.24625
H         -5.39730        0.11097       -1.15101
