21
id_2037_cb.log	Energy: -370889.7236559
C          1.92750       -2.00707       -0.22677
H          2.05035       -3.08026       -0.34173
C          3.04531       -1.21961        0.13082
H          4.00722       -1.70089        0.28329
C          2.93947        0.15433        0.29328
H          3.79723        0.76079        0.57026
C          1.67992        0.73230        0.08786
C          0.54599       -0.03830       -0.27418
C          0.68239       -1.42969       -0.42860
H         -0.17740       -2.03926       -0.69883
C         -0.56558        0.86861       -0.40073
C         -0.07227        2.11535       -0.11636
H         -0.58203        3.06999       -0.10061
N          1.27275        2.04138        0.17683
H          1.86347        2.82693        0.41737
C         -1.96670        0.50350       -0.76767
H         -1.99634       -0.01902       -1.73139
H         -2.56941        1.41210       -0.89195
C         -2.71472       -0.37949        0.24771
O         -3.77924       -0.92313       -0.17007
O         -2.25954       -0.49181        1.41802
