28
id_2006_cb.log	Energy: -326341.1492988
C          3.78797        1.61125       -0.59769
H          4.81453        1.82249       -0.30198
H          3.13102        2.42379       -0.27580
H          3.71774        1.53348       -1.68562
C          3.33499        0.32663        0.02884
O          3.99664       -0.36183        0.78099
O          2.08733        0.00815       -0.33614
C          1.55160       -1.21112        0.21811
H          1.56433       -1.13225        1.30981
H          2.19710       -2.04200       -0.07938
C          0.14355       -1.37580       -0.31181
H         -0.23383       -2.33788        0.05543
H          0.17643       -1.44095       -1.40602
C         -0.79576       -0.25126        0.12147
H         -0.44505        0.70432       -0.28508
H         -0.76636       -0.16949        1.21466
C         -2.21746       -0.51535       -0.35818
H         -2.19234       -0.73372       -1.43269
H         -2.60304       -1.42578        0.14173
N         -3.14083        0.60381       -0.15865
C         -3.30490        0.87464        1.26594
H         -2.37398        1.24365        1.70179
H         -3.61836       -0.02507        1.82573
H         -4.06846        1.64472        1.40555
C         -4.43886        0.22997       -0.70962
H         -5.14800        1.05323       -0.58684
H         -4.34363        0.01326       -1.77738
H         -4.86083       -0.66270       -0.21457
