9
id_2010_ca.log	Energy: -201563.8281576
C         -0.24127       -0.90953        0.18643
H         -0.14706       -1.75159       -0.50394
H         -0.19660       -1.30475        1.20840
C         -1.53421       -0.26172       -0.00945
N         -2.55262        0.26565       -0.16557
C          0.97045       -0.00709       -0.00151
O          2.06763       -0.48228       -0.18913
O          0.82431        1.31547        0.08317
H         -0.09337        1.60131        0.24937
