46
id_2147_ca.log	Energy: -1015584.2194632
C          3.87030        1.55298       -1.63858
H          4.43564        2.28742       -1.05536
H          3.37703        2.08273       -2.45919
H          4.56727        0.82802       -2.06996
C          2.82099        0.89158       -0.74786
C          3.42819        0.08611        0.45067
N          2.48146       -0.96736        0.76772
C          1.76490       -1.57178       -0.36941
S          1.91036       -0.38603       -1.75075
C          0.48142       -1.61128        0.50529
C          1.32419       -0.80408        1.50862
O          1.10064       -0.18021        2.52200
N         -0.67795       -0.93324        0.00159
H         -0.52353       -0.16068       -0.64375
C         -1.84752       -0.95823        0.68490
O         -2.04747       -1.73072        1.62630
C         -2.89397       -0.00448        0.19638
C         -2.69261        1.37974        0.29397
C         -3.68248        2.26962       -0.13291
H         -3.54273        3.34122       -0.06124
C         -4.86629        1.75151       -0.65224
H         -5.63845        2.43860       -0.98562
C         -5.09321        0.38099       -0.75791
H         -6.02487        0.01457       -1.17113
C         -4.09701       -0.49895       -0.32643
O         -4.19698       -1.85377       -0.39616
C         -5.38856       -2.40207       -0.95506
H         -5.51712       -2.07315       -1.99083
H         -6.26183       -2.11911       -0.35948
H         -5.25658       -3.48302       -0.92451
O         -1.50590        1.76524        0.83634
C         -1.25062        3.16291        0.95488
H         -0.27130        3.24647        1.42576
H         -2.00443        3.64076        1.58803
H         -1.23154        3.63762       -0.03122
C          4.77259       -0.52363        0.10173
O          4.90976       -1.61499       -0.41092
O          5.78434        0.29129        0.39721
H          6.62684       -0.11878        0.11556
C          1.84773        1.94368       -0.21359
H          2.40329        2.70564        0.34563
H          1.09507        1.51214        0.45219
H          1.32590        2.42931       -1.04392
H          3.54055        0.74597        1.31500
H          2.14143       -2.54380       -0.68291
H          0.22547       -2.61369        0.85091
