27
id_2364_ca.log	Energy: -232261.4721687
C         -2.54120       -1.24906        0.11052
H         -2.11761       -2.16841       -0.30281
H         -3.58331       -1.18978       -0.21955
H         -2.54103       -1.33587        1.20435
C         -1.77255       -0.00000       -0.32674
H         -1.70800       -0.00000       -1.42516
C         -2.54120        1.24906        0.11052
H         -2.11761        2.16840       -0.30283
H         -2.54102        1.33588        1.20434
H         -3.58331        1.18978       -0.21955
C         -0.33205       -0.00000        0.21771
H         -0.38500       -0.00000        1.31824
C          0.44339       -1.25011       -0.22107
H          0.43056       -1.32284       -1.31765
H         -0.01902       -2.15940        0.17118
C          1.88300       -1.24211        0.26281
H          2.45106       -2.09214       -0.11560
H          1.94390       -1.22422        1.35345
N          2.57457        0.00000       -0.21204
H          2.59912        0.00000       -1.23934
C          1.88299        1.24211        0.26281
H          1.94390        1.22422        1.35345
H          2.45105        2.09214       -0.11559
C          0.44339        1.25011       -0.22107
H         -0.01902        2.15940        0.17119
H          0.43055        1.32284       -1.31764
H          3.54805        0.00000        0.11083
