49
id_2132_ca.log	Energy: -569439.5303613
C         -3.02329        1.78774       -1.02932
H         -3.73733        1.53946       -1.82121
H         -2.43917        2.65037       -1.35868
H         -3.57265        2.07872       -0.13103
C         -2.07023        0.63453       -0.77602
H         -1.43685        0.80667        0.09672
H         -1.43347        0.45675       -1.64529
N         -2.81988       -0.65537       -0.53007
C         -3.45299       -0.67400        0.83483
H         -2.63743       -0.62640        1.56003
H         -4.03034        0.24792        0.90844
C         -4.35068       -1.87910        1.03482
H         -4.89192       -1.75069        1.97511
H         -3.79206       -2.81641        1.09266
H         -5.08514       -1.95334        0.22663
C         -2.00892       -1.88422       -0.84325
H         -2.71218       -2.71171       -0.95667
H         -1.53089       -1.70259       -1.80658
C         -0.99323       -2.26784        0.21206
H         -0.48792       -3.17284       -0.13246
H         -1.45707       -2.47169        1.17714
O         -0.02655       -1.24240        0.47205
C          0.99869       -1.13468       -0.39223
O          1.08707       -1.81781       -1.39035
C          2.01366       -0.09005        0.06441
C          3.19937       -0.07023       -0.91830
H          2.87437       -0.09070       -1.96071
H          3.74637        0.86356       -0.75522
C          4.07332       -1.28780       -0.54097
H          3.96542       -2.09111       -1.27410
H          5.12932       -1.00751       -0.52080
C          3.58440       -1.74744        0.85477
H          4.40590       -1.95100        1.54550
H          3.00021       -2.67045        0.76604
C          2.68019       -0.61573        1.35571
H          3.27558        0.20275        1.77661
H          1.96167       -0.94014        2.11215
C          1.28799        1.23858        0.20142
C          1.03168        2.00720       -0.93954
H          1.38705        1.66727       -1.90881
C          0.31772        3.19962       -0.84752
H          0.12770        3.78440       -1.74272
C         -0.15732        3.63759        0.38832
H         -0.71804        4.56449        0.46043
C          0.09378        2.87891        1.52948
H         -0.26892        3.21327        2.49676
C          0.81163        1.68689        1.43643
H          0.99357        1.10168        2.33277
H         -3.59538       -0.67133       -1.20640
