27
id_2012_ca.log	Energy: -279309.2114636
C         -1.52106        1.90912       -0.73708
H         -1.33504        2.79673       -0.12721
H         -2.35561        2.12126       -1.41185
H         -0.62732        1.70640       -1.33498
C         -1.85395        0.73723        0.16985
C         -0.77751        0.43567        1.22197
H         -0.71784        1.33037        1.84956
H         -1.11280       -0.38307        1.86589
C          0.58089        0.12259        0.64009
C          0.94479       -1.19457        0.33954
H          0.25681       -2.00666        0.56644
C          2.18541       -1.47953       -0.23039
H          2.45191       -2.50789       -0.45436
C          3.08190       -0.44903       -0.50153
H          4.04972       -0.66917       -0.94125
C          2.73330        0.86714       -0.19866
H          3.43023        1.67499       -0.39996
C          1.49294        1.14888        0.36718
H          1.22583        2.17516        0.60757
N         -2.09632       -0.47054       -0.70424
H         -1.20241       -0.76442       -1.12244
C         -2.73734       -1.63177       -0.02741
H         -2.92638       -2.39930       -0.77610
H         -3.67260       -1.29141        0.41531
H         -2.06856       -2.01514        0.74061
H         -2.80514        0.91102        0.67900
H         -2.69273       -0.17948       -1.48789
