16
id_2297_cb.log	Energy: -272386.5988677
C          2.80124       -0.86144        0.06235
H          3.86435       -0.62637        0.02118
H          2.56687       -1.55709       -0.74681
H          2.58498       -1.35632        1.01538
N          2.06100        0.37444       -0.08880
H          2.54150        1.25007        0.06408
C          0.71116        0.43197       -0.03250
N          0.15716        1.66049       -0.00109
C         -1.17743        1.68437        0.02601
H         -1.63504        2.67034        0.05229
C         -1.97554        0.55419        0.02370
H         -3.05613        0.59148        0.04705
C         -1.27768       -0.65480       -0.00517
N          0.04435       -0.73893       -0.03146
O         -1.98056       -1.80294       -0.00338
H         -1.35022       -2.54634       -0.02300
