23
id_2280_ca.log	Energy: -584236.5724584
C         -0.84499        1.97249       -0.77759
H         -0.87574        2.49895        0.18276
H         -1.81247        2.05459       -1.26775
H         -0.09090        2.41938       -1.42754
N         -0.52685        0.53741       -0.63355
C          0.78910        0.17428       -0.33478
C          1.33414       -1.07291       -0.63204
H          0.71972       -1.81449       -1.12220
C          2.66176       -1.32222       -0.31868
H          3.08730       -2.29125       -0.55559
C          3.45942       -0.33270        0.26200
H          4.50220       -0.50375        0.49530
C          2.89480        0.89374        0.51676
H          3.42224        1.73577        0.94532
N          1.59298        1.10274        0.22936
S         -1.77352       -0.39947        0.06106
O         -2.99751        0.06712       -0.57187
O         -1.38855       -1.79725       -0.06346
C         -1.76740        0.05737        1.77251
H         -2.56581       -0.51019        2.25688
H         -1.95731        1.12951        1.85121
H         -0.79609       -0.20858        2.19497
H          1.20779        2.02138        0.45260
