29
id_2019_ca.log	Energy: -233010.2575772
C         -3.10171        0.84831       -0.67069
H         -3.00732        1.72803       -0.02503
H         -3.82084        0.16446       -0.21218
H         -3.51453        1.17580       -1.62818
C         -1.74511        0.18165       -0.88451
H         -1.11588        0.84076       -1.49107
H         -1.86864       -0.75713       -1.44041
C         -1.04262       -0.11896        0.43528
C         -1.86348       -0.97235        1.38895
H         -2.73540       -0.41191        1.73154
H         -1.27367       -1.24734        2.26899
H         -2.20763       -1.88617        0.89221
N          0.24211       -0.86640        0.16706
H          0.68833       -1.07105        1.07119
C          1.27255       -0.22776       -0.73692
C          2.45793       -1.17791       -0.81086
H          2.90492       -1.33871        0.17492
H          3.21765       -0.75116       -1.47035
H          2.15385       -2.14696       -1.21741
C          1.62878        1.17475       -0.24911
H          2.37346        1.55836       -0.95437
H          0.75360        1.82695       -0.34217
C          2.18255        1.24208        1.17295
H          2.43378        2.27613        1.42305
H          3.09084        0.64296        1.28358
H          1.45436        0.89802        1.91710
H         -0.75043        0.81124        0.93062
H          0.79878       -0.16404       -1.71836
H         -0.00351       -1.78226       -0.23362
