37
id_2070_cb.log	Energy: -1246016.6545586
C         -5.64942       -1.56265        1.72772
H         -6.14668       -0.94175        2.47973
H         -4.98301       -2.26960        2.22179
H         -6.42727       -2.10917        1.18536
C         -4.89554       -0.68999        0.77859
N         -3.57812       -0.85885        0.68034
C         -2.96794       -0.04351       -0.19180
N         -3.57721        0.89657       -0.92396
C         -4.89030        0.96891       -0.73140
N         -5.61130        0.21262        0.09105
O         -5.49169        1.90740       -1.46215
C         -6.91056        2.06725       -1.32612
H         -7.16618        2.33824       -0.30025
H         -7.42662        1.14991       -1.61486
H         -7.16845        2.87700       -2.00675
N         -1.61461       -0.11085       -0.38408
H         -1.24348        0.60303       -1.00283
C         -0.66500       -1.02136        0.11073
O         -0.98460       -2.00865        0.78284
N          0.57620       -0.64114       -0.27867
S          1.77178       -1.60842        0.18895
O          1.73832       -2.92853       -0.47976
O          1.96976       -1.68518        1.65122
C          3.18249       -0.76743       -0.51601
C          3.92803       -1.39922       -1.54685
H          3.68136       -2.36793       -1.96262
C          4.99041       -0.63539       -1.94695
H          5.72176       -0.86969       -2.71076
S          5.09346        0.83769       -1.08542
C          3.69157        0.46044       -0.15001
C          3.20838        1.41833        0.86465
O          2.23137        1.25567        1.56618
O          3.98710        2.50285        0.91733
C          3.60573        3.50732        1.87228
H          4.34426        4.29957        1.76729
H          3.63051        3.08927        2.88026
H          2.60630        3.87968        1.64010
