22
id_2017_ca.log	Energy: -360472.1149452
C         -4.13886       -0.74497       -0.48780
H         -5.13817       -0.39564       -0.74645
H         -4.17768       -1.31408        0.44683
H         -3.74970       -1.37746       -1.29251
O         -3.34444        0.42631       -0.33526
C         -2.02784        0.25630       -0.00404
C         -1.27563        1.42833        0.13876
H         -1.76071        2.38805       -0.01462
C          0.06887        1.35190        0.47667
H          0.64575        2.26698        0.58731
C          0.68947        0.11330        0.68065
C         -0.07290       -1.04468        0.53513
H          0.39163       -2.01581        0.69163
C         -1.42691       -0.98826        0.19475
H         -1.99151       -1.90812        0.09355
C          2.16335        0.02424        1.01799
H          2.36165       -0.80582        1.69848
H          2.50228        0.95606        1.48198
C          2.98340       -0.20280       -0.22667
O          3.61046       -1.21573       -0.47671
O          2.94296        0.84103       -1.06721
H          3.46702        0.63279       -1.86537
