23
id_289_cb.log	Energy: -3564537.2545392
C          3.54741        0.77822        1.26537
H          3.21541        1.66321        1.82081
H          4.64248        0.78084        1.23719
H          3.22085       -0.11246        1.81213
C          2.98276        0.81527       -0.16185
H          3.33979       -0.06949       -0.69338
C          3.53024        2.02793       -0.91654
H          4.60208        1.88067       -1.08455
H          3.41525        2.95935       -0.35276
H          3.04617        2.14993       -1.89120
C          1.45856        0.72843       -0.10292
C          0.77412        1.93584       -0.04706
H          1.41165        2.81554       -0.05977
C         -0.58927        2.34173        0.05113
C         -1.78900        1.42768        0.01725
O         -2.91488        1.97139        0.02560
C         -1.63401        0.00936       -0.01024
C         -0.51981       -0.81951       -0.02870
H         -0.76002       -1.87782       -0.02125
C          0.83690       -0.53228       -0.06698
Br         1.92660       -2.11351       -0.06333
Br        -3.28727       -0.93819        0.00187
O         -0.84730        3.57155        0.14780
