15
id_2369_cb.log	Energy: -284852.5490511
C         -0.64947        2.12420        0.00001
H         -0.09586        2.41490       -0.89094
H         -0.09586        2.41490        0.89096
H         -1.63355        2.58945        0.00001
N         -0.85262        0.67250        0.00000
C         -2.08531        0.05581       -0.00000
H         -3.00021        0.62738       -0.00000
C         -1.86686       -1.28806       -0.00001
H         -2.55127       -2.12073       -0.00001
N         -0.50725       -1.45156       -0.00000
H          0.01344       -2.32502       -0.00001
C          0.10217       -0.26436       -0.00000
C          1.61502       -0.11399        0.00000
O          2.05360        1.05224        0.00001
O          2.22004       -1.20587       -0.00000
