29
id_266_cb.log	Energy: -420562.6583374
C          3.54557       -2.02737        0.30757
H          3.37515       -2.57875       -0.62324
H          3.08556       -2.56781        1.14170
H          4.61660       -1.92782        0.48297
O          3.03911       -0.70377        0.21594
C          1.69771       -0.57678       -0.00850
C          0.80812       -1.63027       -0.14852
H          1.15762       -2.65396       -0.07971
C         -0.55125       -1.37876       -0.38282
H         -1.23540       -2.21242       -0.50070
C         -1.02231       -0.07975       -0.47917
C         -0.12211        0.98935       -0.33544
H         -0.49161        2.00710       -0.41567
C          1.22318        0.75258       -0.10307
O          2.17283        1.72147        0.04561
C          1.73034        3.06906       -0.03204
H          0.99501        3.28673        0.74977
H          1.29537        3.28435       -1.01376
H          2.61696        3.68472        0.11810
C         -2.49708        0.22776       -0.68286
C         -3.13958        0.70754        0.62380
H         -4.16010        1.03419        0.40533
H         -2.58414        1.56835        1.01773
N         -3.21191       -0.43395        1.53990
H         -3.81773       -0.19884        2.32232
H         -2.28622       -0.59803        1.93379
O         -3.21941       -0.89924       -1.14961
H         -3.46398       -1.37471       -0.33033
H         -2.59561        1.01672       -1.43685
