18
id_238_ca.log	Energy: -299309.8565358
C          1.90859        1.59125        0.00000
H          2.67756        2.35793        0.00000
C          0.58055        1.94094        0.00000
H          0.26895        2.98160       -0.00000
C         -0.40505        0.91968       -0.00000
C         -1.79590        1.21248       -0.00000
H         -2.10623        2.25608        0.00000
N         -2.74738        0.30454        0.00000
C         -2.36483       -1.00653        0.00000
H         -3.17287       -1.73139        0.00000
C         -1.05809       -1.42146       -0.00000
H         -0.81900       -2.47953       -0.00000
C         -0.02895       -0.44708       -0.00000
C          1.35925       -0.76787       -0.00000
C          2.30454        0.23057        0.00000
H          3.35954       -0.03141        0.00000
O          1.67300       -2.09829       -0.00000
H          2.63914       -2.21069        0.00000
