13
id_2213_ca.log	Energy: -132830.9694395
C         -2.18733       -0.57195       -0.10881
H         -3.01986       -1.22902       -0.25637
C         -1.26465        0.18730        0.05697
C         -0.09098        1.04436        0.24939
H          0.09015        1.19236        1.31981
H         -0.26421        2.03053       -0.19132
C          1.14953        0.44909       -0.40625
H          2.02507        1.06807       -0.21740
H          1.01323        0.31685       -1.47895
N          1.43161       -0.90313        0.16522
H          0.62423       -1.52742        0.03759
H          1.62789       -0.84510        1.17187
H          2.24283       -1.33717       -0.28958
