55
id_2112_cb.log	Energy: -1567479.7767400
C         -3.29380       -1.80484        1.48870
H         -3.04428       -2.30972        2.41563
C         -4.42319       -1.00963        1.39665
H         -5.07109       -0.87879        2.25669
C         -4.72813       -0.35381        0.20479
C         -3.89289       -0.52087       -0.89644
C         -2.76213       -1.33109       -0.82257
H         -2.14438       -1.45750       -1.70364
C         -2.45535       -1.96687        0.38052
O         -1.38530       -2.78670        0.55939
C         -0.25292       -2.69612       -0.32347
H         -0.55843       -2.97473       -1.34116
C          0.35214       -1.29885       -0.30800
H         -0.29901       -0.56266       -0.78687
H          0.47407       -1.00813        0.74232
C          1.71148       -1.29478       -0.99547
H          2.11640       -0.28117       -0.98024
H          1.60242       -1.58052       -2.05840
N          2.62894       -2.20745       -0.30935
C          2.11400       -3.57270       -0.45196
H          2.04143       -3.84630       -1.52065
H          2.81944       -4.26541        0.01619
C          0.75004       -3.70795        0.21850
H          0.86170       -3.52511        1.29348
H          0.36624       -4.72405        0.08649
C          3.98734       -2.11226       -0.83810
H          4.58098       -2.91398       -0.38365
H          4.00692       -2.26874       -1.93361
C          4.71477       -0.79774       -0.52382
C          4.71469       -0.44855        0.96561
H          5.44603        0.34053        1.14782
H          4.99241       -1.32361        1.55963
N          3.40657        0.01921        1.39926
H          2.68648       -0.69779        1.37903
C          3.01637        1.29059        1.14205
O          3.79615        2.18889        0.82542
C          1.53936        1.52032        1.25636
C          0.83517        0.98553        2.29753
H          1.30632        0.45392        3.11606
N         -0.51255        1.09401        2.36853
H         -0.99836        0.68819        3.16573
C         -1.31313        1.68379        1.40235
O         -2.54011        1.70193        1.52472
C         -0.57351        2.26458        0.30245
H         -1.15746        2.74731       -0.47124
C          0.78363        2.19833        0.24345
C          1.47177        2.84163       -0.94206
F          2.14301        3.94265       -0.59026
F          2.34130        2.00437       -1.53133
F          0.59166        3.20583       -1.88274
O          6.08128       -0.93534       -0.89398
H          6.11166       -1.12723       -1.84499
Cl        -4.23399        0.27575       -2.40550
Cl        -6.12718        0.67680        0.13723
H          4.26562        0.04364       -1.07073
