21
id_234_cb.log	Energy: -274503.3245057
C         -3.49949       -0.24515        0.89648
H         -3.11339       -1.09143        1.47383
H         -4.58293       -0.36177        0.79840
H         -3.30324        0.66891        1.46659
C         -2.82673       -0.17878       -0.47723
H         -3.24374        0.65749       -1.04906
H         -3.04586       -1.09304       -1.03919
C         -1.33618       -0.01176       -0.36339
C         -0.45171       -1.08277       -0.36381
H         -0.82617       -2.09774       -0.49423
N          0.86972       -0.96072       -0.21336
C          1.32836        0.29128       -0.05663
N          0.57499        1.41120       -0.03223
C         -0.73280        1.23384       -0.18324
H         -1.34529        2.13507       -0.16459
N          2.67376        0.46718        0.05840
H          2.94791        1.37680        0.40497
C          3.56270       -0.64468        0.33353
H          4.57167       -0.25075        0.45444
H          3.56418       -1.35135       -0.49894
H          3.28261       -1.18770        1.24375
