18
id_2302_ca.log	Energy: -299309.8232816
C          0.58183        1.66972        0.00000
H          0.41438        2.74337        0.00000
C          1.85765        1.16687        0.00000
H          2.71705        1.83305        0.00000
C          2.07749       -0.23657        0.00000
C          1.02172       -1.11569        0.00000
H          1.19709       -2.18826        0.00000
C         -0.30056       -0.60731        0.00000
C         -0.53522        0.79195        0.00000
C         -1.88262        1.23409       -0.00000
H         -2.10670        2.29722       -0.00001
C         -2.89291        0.30788       -0.00001
H         -3.93213        0.62108       -0.00001
N         -2.68151       -1.04231        0.00000
C         -1.43601       -1.46401        0.00001
H         -1.27654       -2.54115        0.00000
O          3.35149       -0.74197       -0.00001
H          3.99717       -0.01484        0.00005
