19
id_2299_ca.log	Energy: -242184.2029726
C          3.06074        0.47353        0.01327
H          3.68704       -0.29961       -0.44161
H          3.41171        0.61933        1.04178
H          3.22534        1.41159       -0.52540
C          1.60578        0.07777       -0.01155
C          1.22091       -1.26618       -0.01089
H          1.98087       -2.04424       -0.01931
C         -0.12525       -1.62618       -0.00215
H         -0.42659       -2.67005       -0.00429
C         -1.10497       -0.63746        0.00421
C         -0.76141        0.72136       -0.00044
C          0.59740        1.04755       -0.00926
H          0.87413        2.10090       -0.01640
C         -1.83229        1.78039       -0.00186
H         -2.47839        1.69829       -0.88484
H         -1.38489        2.77713       -0.00543
H         -2.47547        1.70358        0.88373
O         -2.42031       -1.05429        0.00911
H         -3.01668       -0.28726        0.01084
