15
id_2152_cb.log	Energy: -505617.0501595
C          2.40317        0.02525        0.00000
H          2.94672       -0.92273        0.00000
H          2.71067        0.59931        0.88110
H          2.71067        0.59931       -0.88110
C          0.91725       -0.21910        0.00000
C          0.40941       -1.51902        0.00000
H          1.10954       -2.35297        0.00000
C         -0.98205       -1.81776        0.00000
C         -1.85861       -0.69697        0.00000
H         -2.93174       -0.87382        0.00000
C         -1.37272        0.60487        0.00000
H         -2.06272        1.44494        0.00000
C          0.00000        0.83905        0.00000
Cl         0.57895        2.50488        0.00000
O         -1.42799       -3.04687        0.00000
