29
id_2192_cb.log	Energy: -654737.4372580
C         -2.75250       -2.98714        0.39043
H         -2.79754       -4.06499        0.51472
C         -2.09163       -2.20092        1.33380
H         -1.62650       -2.66211        2.20016
C         -2.03829       -0.81535        1.18131
H         -1.53914       -0.19610        1.92164
C         -2.62891       -0.22182        0.06496
C         -3.30947       -1.00073       -0.87323
H         -3.77936       -0.51979       -1.72604
C         -3.36662       -2.38199       -0.70925
H         -3.88770       -2.98838       -1.44439
N         -2.60280        1.19571       -0.11008
C         -1.50273        1.95100       -0.05342
O         -1.55640        3.20808       -0.03622
C         -0.16049        1.27787       -0.05870
C          0.18094        0.31801       -1.01889
H         -0.54702        0.00573       -1.76229
C          1.45475       -0.23687       -1.02622
H          1.72458       -0.97740       -1.77441
C          2.38471        0.16390       -0.06444
C          2.06168        1.12789        0.88704
H          2.79036        1.43921        1.62822
C          0.78800        1.69185        0.87795
H          0.52509        2.44893        1.61092
C          3.74917       -0.45630       -0.09620
F          3.69496       -1.80469       -0.05577
F          4.52556       -0.06949        0.92936
F          4.42081       -0.14757       -1.22726
O         -3.82194        1.78745       -0.24200
