28
id_254_cb.log	Energy: -373876.0191173
C         -5.21072        0.16233        0.00182
H         -6.28683        0.30477        0.00265
C         -4.35542        1.26580        0.01046
H         -4.76670        2.27082        0.01806
C         -2.97679        1.09039        0.00948
H         -2.33340        1.96512        0.01634
C         -2.41649       -0.19829       -0.00034
C         -3.28930       -1.29687       -0.00897
H         -2.87170       -2.30063       -0.01666
C         -4.67024       -1.12139       -0.00791
H         -5.32343       -1.98881       -0.01468
C         -0.96887       -0.45200       -0.00245
H         -0.69671       -1.50655       -0.01052
C         -0.00133        0.48040        0.00357
H         -0.27831        1.53404        0.00935
C          1.44457        0.24017        0.00051
C          2.02339       -1.04072        0.00930
H          1.39115       -1.92401        0.02297
C          3.39799       -1.21114        0.00507
H          3.82370       -2.21122        0.01307
C          4.26111       -0.10139       -0.00815
C          3.69472        1.18117       -0.01300
H          4.34675        2.05060       -0.01900
C          2.31615        1.33956       -0.00896
H          1.89783        2.34339       -0.01044
N          5.63844       -0.27471       -0.07830
H          6.17112        0.50967        0.28214
H          5.96479       -1.15224        0.31226
