12
id_2412_ca.log	Energy: -192247.9726064
C         -1.67993       -0.93194        0.00000
H         -1.54399       -1.56686        0.88185
H         -1.54399       -1.56686       -0.88185
H         -2.70133       -0.54509        0.00000
C         -0.69650        0.20205        0.00000
C         -1.03817        1.49445       -0.00000
H         -0.29754        2.28763       -0.00000
H         -2.08497        1.78642       -0.00000
C          0.73766       -0.19667       -0.00000
O          1.10873       -1.35928       -0.00000
O          1.60623        0.82578        0.00000
H          2.51374        0.46543        0.00000
