22
id_2167_cb.log	Energy: -300680.2287273
C         -2.50474        0.14366       -0.46095
H         -2.46182        0.68565       -1.41687
H         -3.56289       -0.04541       -0.24600
C         -1.74776       -1.17864       -0.60374
H         -1.88675       -1.77854        0.30675
H         -2.16254       -1.76991       -1.42821
C         -0.25550       -0.93919       -0.85029
H          0.28523       -1.89322       -0.89971
H         -0.12984       -0.43981       -1.82148
C          0.38987       -0.05375        0.24564
C         -0.39691        1.25769        0.35592
H          0.05015        1.88152        1.13955
H         -0.30228        1.80291       -0.58981
C         -1.88428        1.01777        0.63186
H         -2.01858        0.53492        1.61015
H         -2.40499        1.98066        0.68779
C          1.84987        0.18427       -0.19943
O          2.09579        1.17011       -0.94974
O          2.71094       -0.66645        0.16741
N          0.41829       -0.71216        1.56191
H          1.02119       -1.53035        1.48466
H         -0.51196       -1.06347        1.78447
