21
id_2399_cb.log	Energy: -394184.6216527
C          3.94218        0.01260       -0.42944
H          4.99568        0.01666       -0.69353
C          3.25619       -1.19696       -0.31502
H          3.77498       -2.13621       -0.48156
C          1.90318       -1.20649        0.01949
H          1.39120       -2.15926        0.12203
C          1.23092       -0.00049        0.24825
C          1.92502        1.20928        0.14431
H          1.39871        2.14159        0.32536
C          3.27450        1.21631       -0.19954
H          3.80425        2.16006       -0.28839
C         -0.22094        0.05816        0.61402
O         -0.68496        1.02906        1.23516
N         -0.99385       -0.98188        0.25291
H         -0.62165       -1.66392       -0.39653
C         -2.42641       -0.93029        0.44132
H         -2.65356       -0.70125        1.48548
H         -2.83534       -1.91947        0.22258
C         -3.15539        0.09314       -0.44895
O         -4.37727        0.26064       -0.17534
O         -2.52187        0.66072       -1.37388
