55
id_2102_cb.log	Energy: -1064165.5855229
C          3.50426        1.90293        1.90304
H          3.97075        2.16083        2.85946
H          4.19752        1.25718        1.35085
H          2.60297        1.31848        2.11730
C          3.17741        3.15625        1.09941
H          4.07994        3.76476        0.97270
H          2.45169        3.77746        1.64310
C          2.62292        2.86028       -0.29412
H          3.33054        2.21982       -0.83299
C          2.40166        4.15262       -1.08819
H          1.70081        4.78678       -0.52809
H          3.35835        4.68823       -1.12153
C          1.88557        3.93476       -2.50715
H          1.76359        4.89249       -3.02333
H          2.58229        3.32273       -3.09049
H          0.91197        3.43196       -2.50802
N          1.37995        2.09786       -0.16892
H          0.75815        2.36032        0.58909
C          0.98248        1.14005       -1.03015
O          1.71287        0.73369       -1.95234
C         -0.38539        0.61632       -0.82753
C         -1.42125        1.23906       -0.15496
H         -1.47130        2.18866        0.36178
N         -2.48899        0.41856       -0.22479
N         -2.21683       -0.72077       -0.90658
C         -0.94302       -0.62222       -1.28411
N         -0.31772       -1.59651       -2.05812
S          0.13550       -2.89403       -1.28453
O          0.94504       -3.71847       -2.21631
O         -0.95939       -3.65177       -0.61700
C          1.22227       -2.39471        0.05087
C          2.54718       -2.06990       -0.23681
H          2.92347       -2.15283       -1.25297
C          3.38514       -1.64718        0.79235
H          4.42238       -1.40499        0.57315
C          2.91529       -1.53724        2.10739
C          1.57155       -1.83309        2.36381
H          1.18632       -1.73652        3.37627
C          0.72255       -2.26242        1.34543
H         -0.31494       -2.50269        1.55838
C          3.83505       -1.13536        3.22934
H          4.74558       -0.66588        2.84768
H          3.34197       -0.43855        3.91418
H          4.12923       -2.01594        3.81253
C         -3.78429        0.64443        0.31571
C         -4.24680        1.95090        0.48044
H         -3.63856        2.79366        0.16722
C         -5.50886        2.16245        1.03135
H         -5.86891        3.17891        1.15849
C         -6.31071        1.08174        1.39901
H         -7.29623        1.25218        1.82144
C         -5.84105       -0.21922        1.21543
H         -6.45718       -1.06731        1.49873
C         -4.57565       -0.44587        0.67860
H         -4.19939       -1.45431        0.54668
