23
id_2000_cb.log	Energy: -337666.0206827
C         -3.99596       -0.56685        0.71045
H         -3.93816       -0.97396        1.72640
H         -4.43929       -1.33172        0.06661
H         -4.67494        0.29157        0.74249
C         -2.63153       -0.16268        0.21338
C         -1.98054       -0.87935       -0.79349
H         -2.47208       -1.74189       -1.23863
C         -0.70920       -0.50601       -1.23672
H         -0.22314       -1.08246       -2.02115
C         -0.04979        0.59773       -0.69116
C         -0.70436        1.31857        0.31771
H         -0.21766        2.18785        0.75661
C         -1.97072        0.94576        0.76073
H         -2.45975        1.52496        1.54175
C          1.32735        1.00686       -1.16180
H          1.61674        0.38965       -2.01833
H          1.29832        2.04707       -1.50878
C          2.39022        0.89905       -0.06589
H          2.13563        1.54097        0.78380
H          3.35192        1.26245       -0.45244
C          2.63963       -0.51782        0.45646
O          2.38370       -1.49703       -0.29890
O          3.13278       -0.61872        1.61936
