45
id_2269_ca.log	Energy: -973216.4810435
C          1.46677       -0.89283        2.69252
H          0.63483       -1.38195        3.20580
H          1.65341        0.06086        3.19194
H          2.35266       -1.52925        2.78774
C          1.07919       -0.71991        1.23002
C          0.01460        0.31047        1.01211
H          0.28398        1.32789        1.29465
C         -1.21448        0.08533        0.50826
C         -1.71294       -1.27462        0.22453
C         -1.67887       -2.37045        1.04590
H         -1.29252       -2.32875        2.05918
C         -2.21817       -3.54344        0.43913
H         -2.28529       -4.50529        0.93333
C         -2.65173       -3.31915       -0.83410
H         -3.10271       -4.02213       -1.52244
S         -2.42445       -1.67905       -1.31106
C         -2.13489        1.19850        0.22332
C         -3.50597        1.17601        0.20497
H         -4.08190        0.28282        0.42026
C         -4.08362        2.44365       -0.09687
H         -5.15028        2.62674       -0.14895
C         -3.14403        3.40793       -0.31503
H         -3.29719        4.44897       -0.56797
S         -1.54335        2.78962       -0.15827
N          2.30566       -0.35391        0.39685
C          1.98302       -0.40406       -1.07617
H          1.30262       -1.24684       -1.21949
H          1.44344        0.51905       -1.29990
C          3.21156       -0.57123       -1.95636
H          3.61392       -1.58137       -1.81046
H          2.84100       -0.52558       -2.98573
C          4.34649        0.44076       -1.76640
H          5.04636        0.30204       -2.59618
H          3.96628        1.46729       -1.84689
C          5.10394        0.24267       -0.44777
H          6.12328        0.62852       -0.54264
H          5.20559       -0.83598       -0.27088
C          4.46247        0.90727        0.77952
H          4.79235        1.94855        0.85502
H          4.79965        0.40123        1.69024
C          2.94157        0.96513        0.77561
H          2.56642        1.70071        0.06277
H          2.58158        1.24463        1.76530
H          0.77116       -1.68508        0.82535
H          2.98717       -1.10099        0.59209
