22
id_2296_ca.log	Energy: -534713.1421268
N          1.51274        2.84747       -0.04139
H          2.50030        3.06884       -0.03243
C          1.11684        1.57786       -0.01497
C         -0.26947        1.26208       -0.00330
H         -1.00056        2.05803        0.01616
C         -0.62273       -0.05389       -0.01049
N          0.36093       -1.02635       -0.03717
C          1.67449       -0.63318        0.02159
N          2.06549        0.63187        0.01715
N          2.61714       -1.58185        0.04995
H          3.56961       -1.26281        0.17644
H          2.41633       -2.54521        0.28203
C          0.06220       -2.46380       -0.10048
H          0.23629       -2.93029        0.87192
H          0.69471       -2.92209       -0.86191
H         -0.97083       -2.61998       -0.39855
S         -2.28393       -0.62343        0.02879
C         -3.19775        0.93675        0.02940
H         -4.24967        0.64464        0.04037
H         -2.99197        1.50945       -0.87604
H         -2.97605        1.51958        0.92447
H          0.83927        3.60193       -0.05338
