30
id_2233_ca.log	Energy: -303954.1936815
C         -1.69346       -0.71385        1.83726
H         -0.67460       -1.05563        2.03358
H         -2.35630       -1.19104        2.56414
H         -1.73955        0.36523        1.99251
C         -2.15854       -1.13426        0.45774
H         -3.21413       -0.91714        0.28481
H         -2.00034       -2.20405        0.31195
N         -1.40653       -0.45666       -0.68279
C         -2.03374        0.84814       -1.14329
H         -1.30345        1.31008       -1.80947
H         -2.89318        0.53686       -1.73926
C         -2.49267        1.79820       -0.05332
H         -3.28080        1.35952        0.56296
H         -2.91618        2.67060       -0.55863
H         -1.68739        2.14479        0.59604
C          0.05397       -0.44326       -0.45379
C          0.70986       -1.66507       -0.56340
H          0.15839       -2.56152       -0.83378
C          2.07764       -1.70975       -0.32131
H          2.60594       -2.65376       -0.40387
C          2.76780       -0.54924        0.02302
H          3.83629       -0.59289        0.21395
C          2.10611        0.67543        0.12279
C          0.72754        0.72052       -0.11735
H          0.21241        1.67186       -0.04559
C          2.85259        1.93875        0.45843
H          3.09366        2.49665       -0.45314
H          3.79123        1.71467        0.97089
H          2.25259        2.59374        1.09586
H         -1.54138       -1.08502       -1.48411
