39
id_268_cb.log	Energy: -518464.4441510
C         -5.68870        1.80544       -1.05620
H         -5.06114        2.69358       -1.16813
H         -6.71424        2.12785       -0.85865
H         -5.67615        1.24301       -1.99357
C         -5.20317        0.94812        0.08809
H         -5.80928        0.04677        0.21105
H         -5.19548        1.49393        1.03518
O         -3.85066        0.55065       -0.22134
C         -3.24483       -0.22689        0.67854
O         -3.78423       -0.59117        1.70842
C         -1.85730       -0.59554        0.29340
C         -1.12633       -1.41227        1.16214
H         -1.58579       -1.75527        2.08346
C          0.17158       -1.77955        0.83944
H          0.73772       -2.41762        1.51367
C          0.75972       -1.34213       -0.35307
C          0.02380       -0.52946       -1.21664
H          0.46980       -0.19696       -2.14818
C         -1.27805       -0.15467       -0.89789
H         -1.84184        0.47741       -1.57527
C          2.19881       -1.72342       -0.65743
C          3.16854       -0.91064        0.21158
H          4.17936       -1.30567        0.06000
H          2.91118       -1.03839        1.27185
N          3.15358        0.47685       -0.24843
H          2.28782        0.91230        0.07872
C          4.27406        1.28551        0.25878
H          5.19047        0.81982       -0.12585
C          4.35018        1.32681        1.78516
H          4.50765        0.33204        2.21261
H          3.41858        1.73491        2.19663
H          5.17598        1.96691        2.11198
C          4.15881        2.69280       -0.31206
H          4.13078        2.67325       -1.40529
H          5.00620        3.30834        0.00357
H          3.24031        3.17274        0.04726
O          2.53092       -1.52852       -2.01966
H          2.80952       -0.59211       -2.06145
H          2.33262       -2.78717       -0.43293
