17
id_2301_cb.log	Energy: -299022.8704021
C         -2.16443        1.80417        0.00000
H         -2.75449        2.71699        0.00000
C         -2.83434        0.54693        0.00000
H         -3.91961        0.51497        0.00000
C         -2.09900       -0.61266        0.00000
H         -2.58684       -1.58545        0.00000
C         -0.68000       -0.55998        0.00000
C          0.12778       -1.72256        0.00000
H         -0.36617       -2.69542        0.00000
N          1.44209       -1.72910        0.00000
C          2.12924       -0.51900        0.00000
C          1.40456        0.68864        0.00000
H          1.95189        1.62808        0.00000
C          0.00000        0.69224        0.00000
C         -0.79450        1.88197        0.00000
H         -0.29429        2.84764        0.00000
O          3.41738       -0.56520        0.00000
