23
id_2273_cb.log	Energy: -207307.2794121
C          2.97161        0.37182       -0.23103
H          2.95161        0.48852       -1.31914
H          3.94919       -0.03099        0.04982
H          2.88235        1.36204        0.22342
C          1.87782       -0.58039        0.23123
H          1.87530       -0.62775        1.33690
H          2.11263       -1.58982       -0.12403
N          0.54097       -0.24658       -0.26621
C         -0.38634       -1.30095        0.15645
H         -0.39265       -1.38432        1.26155
H         -0.01981       -2.25600       -0.23472
C         -1.80728       -1.04093       -0.32880
H         -2.45740       -1.85585        0.00680
H         -1.81802       -1.04248       -1.42591
C         -2.30728        0.30656        0.18810
H         -3.30229        0.53344       -0.20883
H         -2.39585        0.26082        1.28215
C         -1.30886        1.39942       -0.18751
H         -1.59687        2.36096        0.25051
H         -1.29655        1.52680       -1.27725
C          0.09598        1.03763        0.28411
H          0.79557        1.81848       -0.02526
H          0.11220        1.00327        1.39220
