40
id_2118_cb.log	Energy: -519072.9526760
C         -3.52688        1.47829        1.88182
H         -2.53530        1.59855        2.33578
H         -3.98673        0.57583        2.29570
H         -4.14266        2.33428        2.17631
C         -3.40008        1.40498        0.35988
H         -4.39712        1.23508       -0.06730
C         -2.83609        2.70707       -0.19557
H         -2.76920        2.67280       -1.28702
H         -1.82924        2.88238        0.20484
H         -3.46440        3.55629        0.08857
N         -2.54827        0.30045       -0.10402
H         -1.59961        0.47523        0.22843
C         -2.96057       -1.02299        0.36696
H         -2.75728       -1.20180        1.43207
H         -4.04377       -1.10121        0.21913
C         -2.28353       -2.11485       -0.47160
C         -0.83002       -2.35781       -0.09453
H         -0.40671       -3.14953       -0.72462
H         -0.75496       -2.66128        0.95720
O         -0.11392       -1.14506       -0.30610
C          1.20298       -1.10548        0.02685
C          1.91584       -2.17496        0.51521
H          1.44655       -3.14148        0.65456
C          3.28580       -2.01289        0.84571
H          3.83034       -2.86976        1.23024
C          3.91750       -0.80799        0.69255
H          4.96519       -0.68688        0.95182
C          3.20001        0.31155        0.18559
C          1.82849        0.16937       -0.16057
C          1.11810        1.28465       -0.67586
H          0.07751        1.16694       -0.95982
C          1.74439        2.49799       -0.82770
H          1.19374        3.34630       -1.22233
C          3.10718        2.64806       -0.47623
H          3.59081        3.61200       -0.60043
C          3.81619        1.57976        0.01463
H          4.86427        1.68563        0.28187
O         -2.39581       -1.78847       -1.84772
H         -2.35174       -0.81123       -1.85459
H         -2.80965       -3.06152       -0.30467
