43
id_2153_ca.log	Energy: -1096901.8126101
C          4.09357        2.43070        0.27325
H          3.84015        2.61185        1.32047
H          4.29131        3.39861       -0.19543
H          5.01494        1.84577        0.23014
C          2.96526        1.76696       -0.50128
C          1.70383        2.62309       -0.61004
H          1.00027        2.12947       -1.29442
H          1.98857        3.57524       -1.06720
C          1.02688        2.83254        0.74343
H          0.11949        3.42938        0.61459
H          1.68726        3.38849        1.41872
C          0.67549        1.47651        1.35017
H          0.27213        1.58328        2.36133
H         -0.09880        0.99333        0.74106
C          1.88825        0.56057        1.43893
H          2.63554        0.93863        2.14065
H          1.59522       -0.44416        1.74978
N          2.57735        0.42550        0.10697
C          3.74291       -0.52776        0.16509
H          4.37125       -0.19865        0.99450
H          4.29355       -0.39478       -0.77040
C          3.35218       -1.99038        0.34662
H          2.77220       -2.14238        1.26172
H          4.28898       -2.54193        0.47696
C          2.62954       -2.60108       -0.84171
H          3.19240       -2.46074       -1.76556
H          2.43564       -3.66318       -0.68678
O          1.37634       -1.92000       -1.07879
C          0.33650       -2.25961       -0.30347
O          0.36262       -3.16756        0.49994
C         -0.82363       -1.34911       -0.50825
C         -0.85349       -0.41146       -1.54293
H         -0.04915       -0.36563       -2.26870
C         -1.91775        0.47415       -1.63896
H         -1.95539        1.20777       -2.43675
C         -2.94748        0.42712       -0.70180
C         -2.91989       -0.51859        0.32781
C         -1.85855       -1.40879        0.42199
H         -1.82716       -2.13695        1.22558
Cl        -4.19210       -0.59916        1.50538
Cl        -4.25443        1.55725       -0.83674
H          3.31829        1.50993       -1.50375
H          1.88947        0.02187       -0.54444
