45
id_2145_ca.log	Energy: -783700.2766277
C          1.28986        3.36598        0.92062
H          0.40766        2.85937        1.32232
H          1.05545        4.42987        0.82122
H          2.11217        3.25686        1.63432
C          1.69686        2.82140       -0.43825
H          2.60724        3.31079       -0.78370
H          0.93416        2.97550       -1.19752
N          2.02637        1.37336       -0.36936
C          3.31967        1.03874       -0.36149
H          4.01018        1.85657       -0.53831
C          3.82214       -0.23011       -0.14945
C          2.91789       -1.31523        0.14622
O          3.25060       -2.48586        0.39498
C          1.48792       -0.93812        0.13239
C          1.06652        0.38075       -0.13528
C         -0.31836        0.61397       -0.18558
C         -1.28501       -0.35698        0.07919
C         -0.79226       -1.63938        0.38420
C          0.54432       -1.93925        0.38762
H          0.87272       -2.94773        0.61441
F         -1.67049       -2.61378        0.69535
N         -2.63554        0.00302       -0.00914
C         -3.10608        0.94578        1.01382
H         -3.30247        0.41350        1.95795
H         -2.34952        1.70802        1.20368
C         -4.36730        1.63478        0.53654
H         -4.18877        2.21413       -0.37115
H         -4.78453        2.27640        1.31303
N         -5.39575        0.60181        0.19840
H         -6.24472        1.05738       -0.15781
H         -5.66827        0.09637        1.05349
C         -4.90533       -0.39573       -0.81852
C         -3.63303       -1.03275       -0.27714
H         -3.25333       -1.72022       -1.03554
H         -3.88351       -1.60725        0.62788
C         -5.99513       -1.41583       -1.08111
H         -5.65279       -2.11938       -1.84447
H         -6.90373       -0.92667       -1.44434
H         -6.23181       -1.97664       -0.17072
F         -0.78959        1.82571       -0.53085
C          5.28751       -0.34441       -0.23147
O          6.03220        0.60255       -0.45101
O          5.76754       -1.58175       -0.05598
H         -4.68445        0.18864       -1.71547
H          6.73954       -1.54136       -0.14686
