28
id_249_ca.log	Energy: -823436.7761585
C         -4.60123       -0.92231        0.26560
H         -5.67795       -0.95277        0.39955
C         -3.87214       -2.11176        0.20047
H         -4.38191       -3.06620        0.28566
C         -2.49139       -2.07928        0.02442
H         -1.91776       -2.99860       -0.03290
C         -1.83516       -0.85079       -0.06716
C         -2.56695        0.34358        0.00079
C         -3.95178        0.30505        0.15906
H         -4.51078        1.23429        0.20253
C         -1.87246        1.64873       -0.10958
O         -2.49306        2.69797       -0.19028
C         -0.37481        1.65613       -0.07965
C          0.26753        2.89516       -0.01248
H         -0.33214        3.79910       -0.01301
C          1.64927        2.96164        0.06239
H          2.15259        3.92081        0.11690
C          2.40048        1.78658        0.09002
H          3.47980        1.83337        0.18049
C          1.76282        0.55351        0.01179
C          0.36089        0.46131       -0.09084
C         -0.36918       -0.83042       -0.27840
O          0.21618       -1.84873       -0.62835
S          2.85102       -0.86232        0.19043
O          2.34531       -1.72271        1.24997
O          4.21757       -0.37632        0.28854
O          2.79681       -1.61529       -1.20900
H          1.87385       -1.95533       -1.33181
