11
id_2066_ca.log	Energy: -456745.3285113
C         -0.32167        1.07667        0.00765
H         -0.77298        1.90576        0.56928
H         -0.24325        1.40220       -1.03320
C          1.03323        0.77670        0.60546
H          0.95432        0.36639        1.61159
H          1.65401        1.67107        0.61822
Cl         1.92553       -0.44912       -0.38282
C         -1.28133       -0.07926        0.10106
O         -1.15204       -1.04229        0.83144
O         -2.34179        0.08137       -0.70232
H         -2.95690       -0.66761       -0.57594
