13
id_2306_cb.log	Energy: -239765.8044516
C         -1.03546       -1.70335        0.00000
H         -1.43525       -2.71464        0.00000
C         -1.90280       -0.61332       -0.00000
H         -2.97890       -0.75896       -0.00000
C         -1.37071        0.68723       -0.00000
H         -2.01986        1.55992       -0.00000
C         -0.00000        0.86279       -0.00000
C          0.92122       -0.22648        0.00000
C          0.35325       -1.51597        0.00000
H          1.02354       -2.37331        0.00000
O          2.20798        0.04250        0.00000
O          0.55402        2.12906       -0.00000
H          1.52145        1.96921       -0.00000
