10
id_231_cb.log	Energy: -212712.5437524
C         -0.04475       -1.73267        0.00000
H         -0.07839       -2.81656        0.00000
C         -1.19854       -0.97208        0.00000
H         -2.16909       -1.46379        0.00000
N         -1.20512        0.37005       -0.00000
C         -0.00000        0.99448       -0.00000
C          1.18582        0.17775        0.00000
H          2.15265        0.67695       -0.00000
N          1.17088       -1.13928        0.00000
O          0.08491        2.27290       -0.00000
