30
id_2232_ca.log	Energy: -303958.6474331
C          1.98025       -1.63738        1.43772
H          2.46019       -1.90052        2.38397
H          2.63088       -1.97699        0.62815
H          1.02806       -2.16969        1.38556
C          1.79091       -0.13603        1.43242
H          2.74268        0.38990        1.52853
H          1.12701        0.18491        2.23788
N          1.17013        0.40387        0.15521
C          2.04477        0.19613       -1.05688
H          3.03980        0.52420       -0.74994
H          2.08231       -0.87080       -1.27125
C          1.52888        0.99931       -2.23326
H          2.23937        0.90468       -3.05771
H          1.44287        2.05937       -1.97417
H          0.55642        0.63640       -2.57495
C         -0.23548       -0.01739       -0.01701
C         -0.51865       -1.24751       -0.60011
H          0.27801       -1.89481       -0.95120
C         -1.84557       -1.64480       -0.73463
H         -2.07347       -2.60265       -1.18953
C         -2.86636       -0.81077       -0.28780
H         -3.90307       -1.11420       -0.39164
C         -2.55998        0.41730        0.29012
H         -3.35710        1.06971        0.63425
C         -1.23806        0.84478        0.43969
C         -0.92746        2.18532        1.05427
H         -0.41577        2.84342        0.34144
H         -0.29046        2.09206        1.94124
H         -1.85193        2.68084        1.35577
H          1.15366        1.42324        0.28997
