70
id_2087_cb.log	Energy: -1193460.4685349
C          6.83024       -1.16918       -0.18493
H          6.32981       -0.38778        0.39860
H          7.71236       -1.49077        0.37756
H          7.17222       -0.71892       -1.12409
C          5.89630       -2.34513       -0.45465
H          6.43887       -3.13998       -0.97812
H          5.55147       -2.77075        0.49580
C          4.68597       -1.95289       -1.31729
H          5.03183       -1.57808       -2.28542
H          4.06452       -2.83411       -1.51629
C          3.85857       -0.86850       -0.70582
N          3.75579        0.36420       -1.17862
C          2.88734        1.03766       -0.35447
C          2.49081        0.18820        0.66091
N          3.13587       -1.02066        0.43588
C          2.63635       -2.30408        0.96235
H          2.77464       -2.33418        2.04439
H          3.23887       -3.09731        0.51736
C          1.17417       -2.42890        0.59077
C          0.17926       -2.46186        1.56528
H          0.45435       -2.51188        2.61650
C         -1.16749       -2.37284        1.20220
H         -1.93205       -2.36327        1.97492
C         -1.53615       -2.23243       -0.13810
C         -0.53397       -2.27127       -1.11981
H         -0.80581       -2.19354       -2.16982
C          0.80244       -2.36815       -0.75940
H          1.57144       -2.35735       -1.53048
C         -2.96080       -2.00478       -0.50311
C         -3.94321       -2.87670       -0.01695
H         -3.63951       -3.71685        0.60289
C         -5.28901       -2.69317       -0.32564
H         -6.03184       -3.38567        0.05942
C         -5.67495       -1.62201       -1.13103
H         -6.72172       -1.46704       -1.37512
C         -4.71024       -0.74220       -1.61617
H         -5.00562        0.10777       -2.22569
C         -3.35496       -0.91702       -1.31156
C         -2.38138        0.07062       -1.82222
N         -1.47761        0.69862       -1.06644
N         -0.80471        1.47281       -1.91456
N         -1.27971        1.32609       -3.12681
N         -2.28433        0.44941       -3.10483
C          1.65085        0.33457        1.86519
O          1.96263       -0.07979        2.96960
O          0.49299        0.92674        1.60446
C         -0.43227        1.13811        2.68599
H         -0.04105        1.92623        3.33599
H         -0.57845        0.21762        3.25743
C         -1.69115        1.52459        2.01360
C         -2.90785        0.98699        1.92332
O         -3.62037        1.73061        0.97956
C         -2.79315        2.67679        0.49147
O         -3.08011        3.47426       -0.36778
O         -1.62324        2.61472        1.14304
C         -3.62118       -0.12368        2.58522
H         -2.94468       -0.63687        3.27182
H         -3.99332       -0.83562        1.84055
H         -4.47393        0.26425        3.15183
C          2.61847        2.52274       -0.55443
C          3.34565        3.31088        0.53419
H          4.42144        3.11431        0.49484
H          3.17692        4.38356        0.39064
H          2.97305        3.02255        1.52355
C          3.07360        2.97833       -1.93926
H          4.14887        2.84401       -2.07879
H          2.54813        2.42112       -2.72244
H          2.83499        4.04116       -2.04536
O          1.23464        2.83755       -0.39646
H          0.68083        2.32316       -1.02799
