22
id_2050_ca.log	Energy: -648857.4376526
C         -0.45943        2.89075       -0.24636
H         -1.37484        3.42965       -0.50146
H          0.26515        3.03241       -1.05539
H         -0.03000        3.34067        0.65518
C         -0.75178        1.43180       -0.03419
C         -2.04007        0.92149       -0.16637
H         -2.85511        1.59034       -0.42824
C         -2.28397       -0.43545        0.03728
C         -1.26107       -1.30763        0.37276
H         -1.45762       -2.36354        0.52746
C          0.03748       -0.81102        0.50781
H          0.82940       -1.50416        0.76989
C          0.28432        0.54494        0.30833
O          1.52433        1.12645        0.42793
C          2.60935        0.31858        0.81614
H          3.42840        0.99825        1.06694
H          2.38309       -0.28524        1.70177
C          3.07969       -0.57140       -0.31595
O          2.66302       -0.52412       -1.45362
O          4.03597       -1.40596        0.09748
H          4.34734       -1.94668       -0.65521
Cl        -3.91820       -1.04442       -0.13717
