8
id_2061_ca.log	Energy: -205952.7755521
C         -0.77662        0.72284        0.00001
H         -0.87805        1.34088       -0.89521
H         -0.87805        1.34086        0.89523
C          0.59126        0.08642       -0.00000
O          1.60385        0.75753       -0.00000
O          0.57025       -1.24160        0.00000
H          1.48819       -1.57909        0.00000
F         -1.77919       -0.23174       -0.00000
