51
id_2076_cb.log	Energy: -1340221.4658576
C          4.00273       -1.21908       -3.02455
H          4.09818       -2.14108       -3.60292
H          2.94105       -1.00532       -2.88166
H          4.42917       -0.40110       -3.61253
C          4.73233       -1.38018       -1.71451
C          5.70828       -2.38084       -1.61497
H          5.89978       -3.00278       -2.48537
C          6.43212       -2.58790       -0.44683
H          7.19109       -3.36309       -0.40666
C          6.16864       -1.81319        0.67882
H          6.70283       -1.98102        1.60946
C          5.18625       -0.82641        0.62100
C          4.49743       -0.59161       -0.57712
S          3.36485        0.80162       -0.66004
O          3.55239        1.44859       -1.97726
O          3.70584        1.68371        0.48129
N          1.94855        0.05642       -0.50210
C          0.85410        0.86071       -0.50968
O          0.81748        2.09124       -0.63316
N         -0.30192        0.08095       -0.35298
H         -0.13755       -0.91808       -0.28601
C         -1.62486        0.44009       -0.27490
N         -1.98422        1.71475       -0.30591
C         -3.31193        1.93696       -0.22965
N         -4.24218        0.95945       -0.09717
C         -3.73233       -0.25579       -0.07334
N         -2.45777       -0.61312       -0.15791
O         -4.57091       -1.30313        0.05468
C         -5.95669       -1.02029        0.14844
H         -6.32938       -0.52425       -0.75077
H         -6.18847       -0.42624        1.03575
C         -6.63145       -2.36399        0.27703
F         -6.23100       -3.03328        1.37161
F         -6.38856       -3.16048       -0.77765
F         -7.96183       -2.20696        0.36552
N         -3.74398        3.20803       -0.29899
C         -5.13519        3.51756        0.01578
H         -5.80663        2.84934       -0.52197
H         -5.32883        3.42684        1.09140
H         -5.33410        4.54314       -0.29513
C         -2.78316        4.30354       -0.21052
H         -2.42711        4.43516        0.81848
H         -1.92806        4.11290       -0.85738
H         -3.27874        5.21875       -0.53490
C          4.89604       -0.12163        1.91334
O          5.71207        0.54556        2.51976
O          3.68327       -0.41277        2.37461
C          3.29647        0.24886        3.59040
H          3.95666       -0.05054        4.40652
H          2.27588       -0.07508        3.78480
H          3.33617        1.33110        3.44790
