25
id_216_cb.log	Energy: -289075.7889131
C          2.31063       -1.39778        0.24233
H          3.11411       -1.49985       -0.50942
H          1.43415       -1.94572       -0.11279
H          2.64833       -1.87265        1.16751
N          1.97835       -0.00282        0.50781
C          3.13017        0.64553        1.12434
H          4.02675        0.60382        0.48061
H          3.36931        0.15734        2.07316
H          2.90409        1.69690        1.32420
C          1.67243        0.69722       -0.73979
H          1.46727        1.74497       -0.49117
H          2.55135        0.69310       -1.41204
C          0.48025        0.12789       -1.51181
H          0.32865        0.76978       -2.38723
H          0.71134       -0.87206       -1.89270
C         -0.78833        0.07700       -0.70101
C         -1.40770        1.23785       -0.23233
H         -0.98322        2.21259       -0.46178
C         -2.56915        1.13252        0.52221
H         -3.07746        2.01329        0.89969
C         -3.07840       -0.13588        0.78673
H         -3.98549       -0.24925        1.37465
N         -2.50947       -1.26346        0.34841
C         -1.39115       -1.13817       -0.37647
H         -0.94385       -2.06546       -0.73136
