17
id_2207_cb.log	Energy: -157967.0656909
C          0.83408        1.39014        0.02268
H          1.70245        1.93858       -0.35209
H          0.81306        1.48688        1.12305
H         -0.06800        1.85964       -0.37677
N          0.91295       -0.00397       -0.40150
C          2.13839       -0.58668        0.13384
H          2.17136       -0.54622        1.23684
H          3.00645       -0.04516       -0.25177
H          2.22005       -1.63338       -0.17204
C         -0.23076       -0.74559        0.13851
H         -0.07686       -1.80538       -0.10021
H         -0.27127       -0.66234        1.24083
C         -1.53867       -0.29764       -0.44460
H         -1.61422       -0.33128       -1.53141
C         -2.57594        0.10816        0.28290
H         -3.51681        0.40054       -0.17453
H         -2.51944        0.15560        1.36864
