28
id_2119_cb.log	Energy: -667781.2878540
C         -4.06620        1.85870       -0.23620
H         -4.57807        2.80142       -0.40180
C         -4.81974        0.71721        0.10190
H         -5.89827        0.80374        0.18824
C         -4.21269       -0.50997        0.32594
H         -4.79147       -1.39095        0.58538
C         -2.81997       -0.58347        0.20786
C         -2.08192        0.56846       -0.13297
C         -2.68492        1.80587       -0.36284
H         -2.10070        2.68187       -0.62415
N         -0.76745        0.15280       -0.16722
H          0.09084        0.70780       -0.29061
C         -0.77553       -1.17541        0.13586
N         -1.97036       -1.67056        0.36177
S          0.68466       -2.14451        0.28551
C          1.78749       -1.35991       -0.95654
H          2.42923       -2.17111       -1.30651
H          1.16876       -1.03056       -1.79508
C          2.62498       -0.22977       -0.42036
C          3.98479       -0.40763       -0.17285
H          4.44717       -1.37055       -0.36335
C          4.72565        0.66465        0.31403
H          5.78660        0.55295        0.51375
C          4.08447        1.87771        0.53839
H          4.61914        2.74146        0.91670
C          2.72332        1.96344        0.26604
H          2.18372        2.89201        0.42969
N          2.00499        0.93990       -0.20454
