31
id_2348_ca.log	Energy: -927916.9094427
C         -4.18627       -1.72255        0.32124
H         -5.10830       -2.24466        0.05373
H         -4.25840       -1.42944        1.37072
H         -3.35019       -2.42004        0.19847
C         -4.02222       -0.53172       -0.60616
H         -4.76365        0.24089       -0.38805
C         -4.07043       -0.92231       -2.07268
H         -5.05091       -1.34879       -2.29642
H         -3.30688       -1.67526       -2.29493
H         -3.91473       -0.05470       -2.72087
N         -2.68466        0.13068       -0.35582
H         -1.94465       -0.56765       -0.51822
C         -2.51495        0.74211        0.99604
H         -3.35601        1.42096        1.14664
H         -2.56445       -0.05878        1.73293
C         -1.20513        1.52375        1.12294
C          0.03109        0.68349        0.82589
C          0.15795       -0.61655        1.32787
H         -0.62704       -1.05837        1.93415
C          1.29624       -1.36766        1.06927
H          1.39025       -2.37572        1.45808
C          2.32927       -0.83056        0.30599
C          2.21459        0.46701       -0.18872
C          1.07270        1.21917        0.07231
H          1.01655        2.23205       -0.31029
Cl         3.48466        1.18001       -1.13738
Cl         3.73854       -1.79598       -0.00820
O         -1.24334        2.72523        0.37791
H         -1.11363        2.53412       -0.56627
H         -1.16204        1.83774        2.17149
H         -2.55804        0.85736       -1.07275
