18
id_2207_ca.log	Energy: -158259.0449670
C          0.78002        1.44177        0.02457
H          1.64961        1.95747       -0.38121
H          0.75726        1.52527        1.11216
H         -0.13593        1.84121       -0.40764
N          0.88993       -0.00357       -0.31960
C          2.17571       -0.57191        0.17269
H          2.18200       -0.49626        1.26061
H          2.99462        0.00570       -0.25445
H          2.23851       -1.61371       -0.13933
C         -0.28130       -0.79563        0.20287
H         -0.06161       -1.84196       -0.02530
H         -0.28894       -0.65319        1.28641
C         -1.56575       -0.35929       -0.42825
H         -1.64886       -0.50061       -1.50479
C         -2.57400        0.14704        0.27508
H         -3.51043        0.42655       -0.19799
H         -2.49787        0.28738        1.35088
H          0.88408       -0.08470       -1.34389
