15
id_2057_cb.log	Energy: -310890.8733448
C          2.38241       -0.13476        0.00000
H          3.41196        0.20892        0.00000
C          2.09222       -1.50373        0.00000
H          2.89909       -2.23139        0.00000
C          0.77521       -1.94538        0.00000
H          0.53514       -3.00477        0.00000
C         -0.27320       -1.01830        0.00000
C          0.00000        0.36426        0.00000
C          1.33693        0.78091        0.00000
H          1.54309        1.84713        0.00000
C         -1.11477        1.38219        0.00000
O         -2.31061        0.93106        0.00000
O         -0.82294        2.60187        0.00000
O         -1.54804       -1.49474        0.00000
H         -2.12936       -0.67654        0.00000
