21
id_2415_ca.log	Energy: -229997.8892171
C         -3.37268       -0.00000        0.29576
H         -3.84184        0.88813       -0.13585
H         -3.59128       -0.00006        1.36963
H         -3.84185       -0.88809       -0.13594
C         -1.88615       -0.00000        0.05661
C         -1.17783       -1.20143       -0.04859
H         -1.71405       -2.14418        0.02133
C          0.19860       -1.20426       -0.25146
H          0.73515       -2.14572       -0.34026
C          0.89752        0.00000       -0.35756
C          0.19860        1.20426       -0.25145
H          0.73515        2.14572       -0.34025
C         -1.17783        1.20144       -0.04859
H         -1.71405        2.14418        0.02134
C          2.38533        0.00001       -0.55836
H          2.72857        0.89068       -1.08453
H          2.72857       -0.89065       -1.08455
N          3.08777       -0.00001        0.77130
H          2.83027       -0.82901        1.31964
H          2.83028        0.82899        1.31965
H          4.10744       -0.00001        0.65257
