43
id_2350_ca.log	Energy: -473545.9542151
C          2.75759       -1.70327        2.38880
H          1.76209       -1.86552        2.80702
H          3.06240       -0.66910        2.57877
H          3.45288       -2.36330        2.91309
C          2.82601       -2.02299        0.90744
H          2.41731       -3.00970        0.68314
H          3.85536       -1.97536        0.54807
N          2.05186       -1.02791        0.08167
C          2.45593       -1.05939       -1.37146
H          2.01736       -0.17398       -1.83605
H          3.54025       -0.93741       -1.37336
C          2.03932       -2.33058       -2.08338
H          2.46255       -3.22112       -1.61210
H          2.42056       -2.27863       -3.10617
H          0.95220       -2.43645       -2.13719
C          0.57312       -1.17246        0.30218
H          0.30660       -2.19454        0.02439
H          0.39901       -1.05508        1.37325
C         -0.26303       -0.16664       -0.49443
H         -0.15253       -0.39344       -1.56024
C         -1.72669       -0.42038       -0.15139
C         -2.50345       -1.20075       -1.01110
H         -2.06093       -1.58556       -1.92693
C         -3.83316       -1.48490       -0.70638
H         -4.42544       -2.08839       -1.38740
C         -4.40012       -0.99194        0.46679
H         -5.43680       -1.20870        0.70507
C         -3.62980       -0.21684        1.33252
H         -4.06468        0.17129        2.24849
C         -2.30092        0.06660        1.02606
H         -1.71130        0.67680        1.70523
C          0.16444        1.27695       -0.28585
C          0.61935        1.75836        0.94713
H          0.69219        1.09345        1.80554
C          0.98358        3.09678        1.09527
H          1.33578        3.45270        2.05846
C          0.89739        3.97068        0.01498
H          1.18253        5.01159        0.13094
C          0.44844        3.49966       -1.21839
H          0.38356        4.17238       -2.06803
C          0.08927        2.16312       -1.36575
H         -0.25593        1.79558       -2.32920
H          2.31827       -0.09414        0.42527
