17
id_2007_cb.log	Energy: -350606.7288789
C          0.43580        1.19532        0.46928
H         -0.06461        2.14071        0.66317
C          1.76862        1.19941        0.05881
H          2.32358        2.12298       -0.07282
C          2.38173       -0.01989       -0.17783
C          1.72952       -1.23186       -0.02133
H          2.25461       -2.16214       -0.21413
C          0.39721       -1.21146        0.38995
H         -0.13413       -2.15095        0.52116
C         -0.26550       -0.00390        0.63852
C         -1.72605        0.00240        1.02670
H         -1.94951        0.89236        1.62182
H         -1.96462       -0.88981        1.61077
C         -2.58858        0.02591       -0.24520
O         -3.06019       -1.07162       -0.65503
O         -2.73858        1.14166       -0.81842
F          3.68094       -0.02768       -0.57509
