30
id_2228_ca.log	Energy: -303953.3673921
C         -3.80038       -1.74179        0.27788
H         -3.13479       -2.61119        0.29565
H         -4.75379       -2.05579       -0.15665
H         -3.98487       -1.43934        1.31409
C         -3.18041       -0.59967       -0.51953
H         -3.87077        0.25159       -0.55060
H         -3.02010       -0.91506       -1.55760
C         -1.84765       -0.14767        0.08099
H         -1.16164       -1.00079        0.12427
H         -2.01283        0.19796        1.10793
C         -1.25227        0.95605       -0.77246
H         -1.93239        1.80720       -0.86190
H         -1.00858        0.58971       -1.77269
N          0.04160        1.53323       -0.22424
C         -0.18054        2.37608        0.99067
H         -0.65133        1.78282        1.77115
H         -0.83509        3.19652        0.69926
H          0.78454        2.75451        1.32517
C          1.09424        0.50815       -0.07602
C          1.84564        0.20478       -1.20457
H          1.66405        0.73251       -2.13723
C          2.83124       -0.77366       -1.11573
H          3.42747       -1.01293       -1.98978
C          3.05085       -1.43518        0.09081
H          3.82089       -2.19654        0.15954
C          2.28500       -1.11785        1.21009
H          2.45392       -1.63068        2.15097
C          1.29544       -0.13941        1.13621
H          0.70147        0.10132        2.01102
H          0.37563        2.17657       -0.95290
