23
id_2363_cb.log	Energy: -207308.6969673
C         -2.91301        0.00000       -0.06310
H         -3.42938       -0.88661        0.32052
H         -3.01142        0.00000       -1.15532
H         -3.42938        0.88661        0.32053
C         -1.44290       -0.00000        0.33857
H         -1.37393       -0.00000        1.43702
C         -0.71497       -1.24447       -0.17326
H         -0.83502       -1.30753       -1.26348
H         -1.15818       -2.15028        0.25676
C          0.76919       -1.19537        0.16735
H          1.28270       -2.07687       -0.23101
H          0.89096       -1.21904        1.26850
N          1.41018       -0.00000       -0.38578
C          0.76919        1.19537        0.16735
H          0.89096        1.21904        1.26850
H          1.28270        2.07687       -0.23101
C         -0.71497        1.24447       -0.17326
H         -1.15818        2.15028        0.25676
H         -0.83502        1.30753       -1.26348
C          2.81837        0.00000       -0.01627
H          3.31207       -0.88716       -0.42347
H          2.96234        0.00000        1.07892
H          3.31207        0.88716       -0.42348
