55
id_203_ca.log	Energy: -642517.3622173
C         -2.80884       -1.68906        2.56984
H         -2.12835       -2.44435        2.97238
H         -3.22912       -2.06529        1.63157
H         -3.62672       -1.54816        3.28070
C         -2.06737       -0.36454        2.35293
H         -1.70500        0.01349        3.31502
H         -2.73369        0.38619        1.92169
C         -0.84881       -0.57985        1.47760
O          0.07883       -1.26103        1.87915
C         -0.85327       -0.02161        0.03695
C          0.48075       -0.37359       -0.65733
H          0.37186       -0.20765       -1.73418
H          0.69447       -1.43282       -0.50392
C          1.64430        0.46690       -0.13692
H          1.63136        0.58565        0.94955
H          1.64558        1.45777       -0.59479
N          2.96120       -0.17019       -0.47199
C          3.28798       -1.30774        0.45936
H          3.37314       -0.85708        1.45265
H          2.44265       -1.99587        0.45277
C          4.58064       -1.98627        0.03700
H          4.77544       -2.80010        0.74091
H          4.44269       -2.43592       -0.95424
C          5.73763       -0.98935        0.00697
H          5.92928       -0.62481        1.02375
H          6.65041       -1.47676       -0.34632
C          5.38469        0.18979       -0.89764
H          5.29568       -0.14883       -1.93746
H          6.16205        0.95851       -0.87003
C          4.07580        0.83974       -0.47868
H          3.77772        1.63390       -1.16466
H          4.12229        1.23972        0.53861
C         -2.03303       -0.76610       -0.61617
C         -1.87529       -2.09356       -1.03209
H         -0.90886       -2.58168       -0.96112
C         -2.95549       -2.82068       -1.52755
H         -2.80716       -3.84759       -1.84688
C         -4.21789       -2.23817       -1.60459
H         -5.06066       -2.80527       -1.98722
C         -4.38959       -0.92160       -1.18279
H         -5.36867       -0.45533       -1.23320
C         -3.30844       -0.19374       -0.69188
H         -3.46414        0.82897       -0.36304
C         -1.01724        1.49811        0.01608
C         -0.76909        2.28388        1.14382
H         -0.52014        1.82014        2.09554
C         -0.82172        3.67636        1.06810
H         -0.62878        4.26790        1.95759
C         -1.11313        4.30109       -0.13982
H         -1.15398        5.38411       -0.19980
C         -1.34713        3.52568       -1.27610
H         -1.56770        4.00311       -2.22586
C         -1.29660        2.13823       -1.19821
H         -1.47884        1.54134       -2.08848
H          2.89499       -0.55731       -1.42405
