17
id_2231_cb.log	Energy: -3431938.5176757
C          0.07129       -2.08352       -0.00027
H          0.60458       -2.44594        0.88437
H          0.61364       -2.45008       -0.87757
H         -0.92501       -2.52282       -0.00429
C          0.00941       -0.58207       -0.00420
C         -1.17372        0.16572       -0.00468
C         -1.21222        1.55300       -0.00701
H         -2.16333        2.07476       -0.00560
C         -0.01947        2.28446       -0.01031
C          1.19165        1.58094       -0.00727
H          2.13239        2.12139       -0.00614
C          1.17464        0.19646       -0.00466
Br         2.85698       -0.69180        0.00277
N         -0.03517        3.67001       -0.07803
H          0.79714        4.11114        0.29847
H         -0.87893        4.09197        0.29507
Br        -2.86223       -0.71850        0.00273
