22
id_2422_cb.log	Energy: -324070.8562918
C         -0.52180        2.35472       -0.93703
H          0.49586        2.56251       -1.28427
H         -1.02349        3.28958       -0.68522
H         -1.07616        1.83481       -1.72428
O         -0.49190        1.56914        0.26302
C          0.11199        0.33565        0.07463
C         -0.64287       -0.79507       -0.23890
C          0.02511       -2.01183       -0.39865
H         -0.54950       -2.90177       -0.63981
C          1.40984       -2.08787       -0.25351
H          1.91649       -3.03898       -0.38385
C          2.15318       -0.95684        0.07205
H          3.22956       -0.99965        0.20343
C          1.49783        0.26047        0.23903
O          2.21480        1.37825        0.56615
H          1.57703        2.08503        0.77424
C         -2.14892       -0.68922       -0.32997
H         -2.54366       -1.63214       -0.71744
H         -2.42840        0.09063       -1.04462
N         -2.81932       -0.39048        0.94258
H         -2.43760        0.49197        1.28297
H         -2.51429       -1.08784        1.62150
