31
id_2357_cb.log	Energy: -2219982.8808283
C         -3.73409       -0.22551        2.23422
H         -4.38936       -0.53105        3.04353
C         -2.70207        0.67577        2.47484
H         -2.54834        1.07465        3.47387
C         -1.85430        1.07345        1.43877
C         -2.03956        0.55143        0.15928
H         -1.38607        0.84247       -0.65707
C         -3.07340       -0.35241       -0.05895
C         -3.93001       -0.75178        0.95874
H         -4.72750       -1.46010        0.76428
Br        -3.31526       -1.06604       -1.80301
C         -0.76335        2.08764        1.73077
H         -0.37691        1.92845        2.74266
H         -1.18834        3.09376        1.70969
N          0.32896        2.09098        0.77460
H          0.37649        2.84705        0.10491
C          1.20367        1.08562        0.63360
C          1.14104       -0.04063        1.50996
H          0.37130       -0.07109        2.27045
C          2.02353       -1.08257        1.41891
H          1.95246       -1.92186        2.10023
C          3.02416       -1.05927        0.43415
C          3.13568       -0.00727       -0.44596
H          3.90671        0.00542       -1.20506
C          2.23977        1.05164       -0.35330
N          2.41756        2.11183       -1.31593
O          1.65285        3.07462       -1.29052
O          3.32330        2.02279       -2.13219
N          3.95613       -2.15784        0.33556
O          4.82451       -2.11554       -0.52611
O          3.83666       -3.08786        1.12231
