10
id_2066_cb.log	Energy: -456462.2474863
C         -0.37592        1.07736       -0.06265
H         -0.82262        1.92847        0.47024
H         -0.26146        1.37878       -1.10759
C          0.96946        0.80751        0.56813
H          0.87874        0.45007        1.59294
H          1.60976        1.68862        0.53733
Cl         1.86622       -0.48559       -0.34015
C         -1.37781       -0.07827        0.02993
O         -1.28584       -0.87663        1.00217
O         -2.26722       -0.12719       -0.86750
