17
id_278_cb.log	Energy: -262304.7194386
C         -2.80545       -0.93702        0.00008
H         -2.53499       -1.49905        0.89933
H         -2.52995       -1.50962       -0.89093
H         -3.87772       -0.74450       -0.00411
O         -2.17958        0.34188       -0.00563
C         -0.82590        0.37266       -0.00012
C         -0.23113        1.64603       -0.00385
H         -0.84423        2.53921       -0.01094
C          1.14608        1.70391       -0.00364
H          1.64011        2.67239       -0.01056
N          1.96187        0.63585        0.00143
C          1.37593       -0.56712        0.00871
C         -0.01963       -0.75448        0.00735
H         -0.42361       -1.75952        0.01178
N          2.20905       -1.66561        0.07617
H          3.15118       -1.48422       -0.25040
H          1.82001       -2.52525       -0.29349
