32
id_2223_cb.log	Energy: -281284.2554271
C         -3.69475        0.19606       -0.32063
H         -3.71638        0.50097       -1.37411
H         -4.24931        0.94405        0.25652
H         -4.22496       -0.75884       -0.23704
C         -2.25503        0.07576        0.16796
C         -1.51910        1.41312        0.07694
H         -1.55502        1.75698       -0.96802
H         -2.03748        2.17068        0.67765
C         -0.05807        1.29997        0.51706
H         -0.01647        1.05868        1.59001
H          0.42868        2.27310        0.40138
C          0.70891        0.22714       -0.27143
C         -0.03052       -1.12936       -0.18896
C         -1.48610       -0.97514       -0.63680
H         -1.50003       -0.67467       -1.69456
H         -1.98822       -1.94789       -0.56883
N          0.01287       -1.77531        1.13391
H         -0.32788       -1.11285        1.83127
H          0.98971       -1.93331        1.38180
C          2.18660        0.13205        0.16080
H          2.20935       -0.08906        1.23827
C          2.92818       -0.98825       -0.57435
H          2.54608       -1.98328       -0.32638
H          3.99325       -0.97337       -0.32041
H          2.84165       -0.85671       -1.66048
C          2.92896        1.45250       -0.06229
H          2.53007        2.26709        0.54782
H          2.86535        1.75484       -1.11533
H          3.98930        1.34260        0.18876
H         -2.27403       -0.23432        1.22385
H          0.70070        0.52343       -1.33426
H          0.45091       -1.82422       -0.88504
