29
id_2377_cb.log	Energy: -491416.8640258
C          4.49814       -1.01778       -0.05347
H          5.57570       -1.13921       -0.03018
C          3.67195       -2.14016       -0.22556
H          4.11472       -3.12482       -0.33482
C          2.29437       -2.00872       -0.25796
H          1.63671       -2.86109       -0.38975
C          1.74229       -0.73477       -0.11493
C          2.54152        0.39616        0.05624
C          3.93525        0.23694        0.08620
H          4.55136        1.12012        0.22172
C          1.90547        1.71452        0.21099
O          2.56297        2.74927        0.37188
C          0.45900        1.69617        0.17290
H         -0.06884        2.63076        0.31610
C         -0.23457        0.54605       -0.01364
O          0.37833       -0.65209       -0.15757
C         -1.70457        0.43305       -0.07157
C         -2.48519        1.55051       -0.39084
H         -2.02198        2.50010       -0.63406
C         -3.86980        1.41878       -0.42096
H         -4.48479        2.27803       -0.66976
C         -4.47970        0.20087       -0.14413
H         -5.56207        0.10848       -0.17021
C         -3.70411       -0.92605        0.16696
C         -2.31045       -0.79609        0.19957
H         -1.70428       -1.66113        0.44990
N         -4.30277       -2.16393        0.37950
H         -3.74934       -2.79459        0.94973
H         -5.25582       -2.10344        0.72157
