41
id_2379_ca.log	Energy: -732706.8748806
C          3.83051       -1.96910        1.83747
H          3.21006       -2.84521        2.02256
H          3.52345       -1.13986        2.47581
H          4.88208       -2.20475        1.99675
N          3.64954       -1.54763        0.41983
C          4.50901       -0.37009        0.10765
H          5.52483       -0.59428        0.43178
H          4.11339        0.48787        0.65348
H          4.49383       -0.18625       -0.96499
C          2.19964       -1.29512        0.12715
H          1.66543       -2.20385        0.41769
H          1.89664       -0.47831        0.78824
C          1.95740       -0.96854       -1.33792
H          2.47727       -1.69676       -1.97127
H          2.35527        0.01958       -1.57929
C          0.46606       -1.06031       -1.66606
H          0.16584       -2.10639       -1.57267
H          0.28924       -0.75998       -2.70763
N         -0.35546       -0.30733       -0.71951
C         -0.12836        1.08013       -0.56681
C          0.52285        1.84865       -1.53795
H          0.84822        1.38974       -2.46529
C          0.75345        3.20587       -1.32375
H          1.27400        3.78016       -2.08348
C          0.30673        3.82654       -0.16068
H          0.48191        4.88467        0.00233
C         -0.38472        3.08134        0.79192
H         -0.76138        3.55315        1.69470
C         -0.58639        1.71810        0.59700
S         -1.39699        0.73247        1.83338
C         -2.29819       -0.33133        0.73132
C         -1.66066       -0.77088       -0.44007
C         -2.34600       -1.64889       -1.28628
H         -1.88969       -1.97572       -2.21427
C         -3.61765       -2.10495       -0.94499
H         -4.12678       -2.79652       -1.60876
C         -4.24051       -1.66674        0.21999
H         -5.23401       -2.01632        0.47995
C         -3.58222       -0.76199        1.05052
H         -4.05718       -0.39831        1.95699
H          3.95513       -2.32365       -0.17997
