21
id_2054_ca.log	Energy: -313291.9601710
C         -2.99900       -0.33165        0.72972
H         -3.90712       -0.58759        1.26812
C         -2.44102        0.94209        0.85900
H         -2.91584        1.68234        1.49711
C         -1.27608        1.26889        0.16640
H         -0.84945        2.26518        0.26707
C         -0.64828        0.33259       -0.66558
C         -1.21669       -0.93905       -0.78791
H         -0.73930       -1.67552       -1.43057
C         -2.38398       -1.27111       -0.09726
H         -2.81067       -2.26446       -0.20572
C          0.61953        0.69882       -1.40415
H          0.87720       -0.09384       -2.11339
H          0.45434        1.61344       -1.98372
C          1.80150        0.95311       -0.46793
H          1.57294        1.72974        0.26874
H          2.67123        1.30717       -1.03604
C          2.24957       -0.28138        0.26372
O          1.97724       -1.42614       -0.04706
O          3.03361        0.00367        1.31694
H          3.32661       -0.83060        1.73334
