43
id_2156_ca.log	Energy: -1331175.3908082
C         -1.97487        0.20796        2.95329
H         -0.94101        0.42932        2.69402
H         -2.28940        0.79034        3.82087
H         -2.10721       -0.85964        3.13969
O         -2.74630        0.59360        1.80134
C         -4.04104        0.29713        1.82087
O         -4.63644       -0.11314        2.79503
C         -4.68782        0.57738        0.50089
C         -5.85722        1.33155        0.49487
H         -6.27427        1.66563        1.44009
C         -6.47081        1.66884       -0.71236
H         -7.37713        2.26561       -0.70322
C         -5.92756        1.24340       -1.92059
H         -6.40667        1.50117       -2.85927
C         -4.77188        0.46204       -1.93191
H         -4.36318        0.09179       -2.86628
C         -4.16086        0.14210       -0.72469
S         -2.78890       -0.99320       -0.79830
O         -2.83494       -1.86980        0.37028
O         -2.74905       -1.60985       -2.11844
N         -1.47823        0.06980       -0.71148
H         -1.65360        0.86522       -0.09090
C         -0.19489       -0.49309       -0.68049
O         -0.00124       -1.67080       -0.91665
N          0.76557        0.45180       -0.40878
H          0.48268        1.42864       -0.38734
C          2.13239        0.24972       -0.27422
N          2.84543        1.37915       -0.25304
C          4.15339        1.22145       -0.11808
C          4.79013       -0.00629       -0.00529
H          5.86244       -0.11081        0.09390
C          3.91936       -1.08203       -0.02837
N          2.60150       -0.98451       -0.14935
O          4.46474       -2.32278        0.09342
C          3.61734       -3.41669       -0.01046
H          2.88254       -3.33785       -0.80836
F          4.42682       -4.47346       -0.20838
F          2.99512       -3.61550        1.17560
O          4.94719        2.32574       -0.08183
C          4.36227        3.56254       -0.30900
H          3.65591        3.57598       -1.13569
F          3.75958        3.99040        0.82528
F          5.38872        4.39991       -0.54564
