26
id_2058_ca.log	Energy: -349024.6449650
C         -4.09262        0.84090       -0.09882
H         -3.78494        0.69334       -1.13228
H         -3.84058        1.84427        0.24261
H         -5.16134        0.65981        0.00117
N         -3.37328       -0.14178        0.75869
H         -3.79040       -0.14375        1.69570
C         -1.90200        0.09788        0.88950
H         -1.75921        1.09248        1.31417
H         -1.52314       -0.65978        1.57864
C         -1.22096       -0.03035       -0.46578
C          0.28087        0.01461       -0.28538
C          0.97455        1.21751       -0.43013
H          0.43358        2.11842       -0.70951
C          2.34824        1.27797       -0.22743
H          2.89421        2.20881       -0.34226
C          3.04290        0.11832        0.11959
C          2.36374       -1.09239        0.26566
H          2.91715       -1.98873        0.53297
C          0.98808       -1.13607        0.06695
H          0.45905       -2.07835        0.17676
O          4.39491        0.22127        0.30271
H          4.75268       -0.65358        0.52782
O         -1.68595       -1.26085       -0.99806
H         -1.32710       -1.35719       -1.89527
H         -1.52408        0.80530       -1.10946
H         -3.50148       -1.08230        0.36597
