22
id_2090_cb.log	Energy: -560703.3993515
C         -3.49276       -0.91449       -0.20733
H         -3.57748       -1.75358       -0.90261
H         -4.27567       -0.18807       -0.43787
H         -3.64571       -1.28378        0.81196
C         -2.13188       -0.25986       -0.32663
C         -1.91191        0.83619        0.72191
H         -1.55489        0.34582        1.63967
H         -2.88254        1.27958        0.95773
N         -1.02856        1.90363        0.29943
C          0.16785        1.58391       -0.04420
C          0.73938        0.22497       -0.02768
C          0.12714       -1.01329       -0.05408
C          1.04667       -2.10879        0.02381
H          0.72162       -3.14192        0.01002
C          2.33705       -1.69937        0.10468
H          3.22721       -2.31080        0.17516
S          2.47513        0.01378        0.09140
O         -1.18079       -1.32429       -0.16473
N          1.00170        2.58272       -0.51635
H          0.71679        3.51319       -0.23269
H          2.00306        2.44717       -0.46286
H         -1.98932        0.16611       -1.32753
