20
id_2429_ca.log	Energy: -416919.5878719
C         -0.61502        2.26794       -0.21665
H         -0.69845        3.31579       -0.48536
C          0.60695        1.75077        0.21097
H          1.47600        2.40117        0.27262
C          0.73683        0.40302        0.56545
C         -0.37688       -0.42958        0.48935
H         -0.30628       -1.47807        0.75874
C         -1.58406        0.11067        0.05873
C         -1.73447        1.44557       -0.29882
H         -2.69411        1.82748       -0.62627
N         -2.75173       -0.76990       -0.01764
O         -2.62130       -1.93939        0.31344
O         -3.80923       -0.29901       -0.41050
C          2.07276       -0.14251        1.00273
H          1.93647       -1.07222        1.56869
H          2.59882        0.56494        1.64763
C          3.00447       -0.48380       -0.13625
O          4.21708       -0.42053       -0.06262
O          2.37030       -0.91005       -1.23438
H          3.03131       -1.15048       -1.91319
