15
id_2405_ca.log	Energy: -240204.0325705
C          0.81549        0.75228        0.08371
H          0.54086        1.56208        0.76852
H          0.77856        1.15881       -0.93373
C         -0.17305       -0.39799        0.22308
H         -0.13213       -0.83400        1.22940
H          0.05352       -1.21180       -0.47515
C         -1.59403        0.01664       -0.02705
O         -1.96626        1.13706       -0.32442
O         -2.45642       -1.00524        0.11238
H         -3.36313       -0.68303       -0.05693
C          2.23447        0.32374        0.40201
H          2.28818       -0.08582        1.41923
H          2.90726        1.18692        0.34099
O          2.63346       -0.67197       -0.54315
H          3.54329       -0.94004       -0.34131
