26
id_216_ca.log	Energy: -289369.1697204
C          2.31591        1.43640       -0.22532
H          3.16645        1.45731        0.45793
H          1.46856        1.97304        0.19818
H          2.58643        1.87170       -1.18680
N          1.94176        0.01096       -0.44812
C          3.00455       -0.69879       -1.21552
H          3.91898       -0.67655       -0.62162
H          3.15100       -0.18041       -2.16234
H          2.68336       -1.72568       -1.38670
C          1.64279       -0.71583        0.83128
H          1.44748       -1.75287        0.54925
H          2.55547       -0.67417        1.42979
C          0.45392       -0.12741        1.58316
H          0.29477       -0.77652        2.45052
H          0.69132        0.86796        1.96917
C         -0.79669       -0.07467        0.74033
C         -1.40857       -1.23596        0.26153
H         -0.99920       -2.21209        0.51111
C         -2.54763       -1.12483       -0.52492
H         -3.05409       -2.00332       -0.90932
C         -3.03668        0.14684       -0.81205
H         -3.92718        0.26357       -1.42384
N         -2.46794        1.27343       -0.37144
C         -1.37137        1.14559        0.38433
H         -0.92214        2.07080        0.74176
H          1.08463       -0.00150       -1.01712
