46
id_2291_cb.log	Energy: -615434.3675504
C          0.74297        3.40332        0.04841
H          1.25740        4.34742        0.19863
C          0.65150        2.48133        1.08914
H          1.09683        2.70333        2.05441
C         -0.00394        1.26528        0.89772
H         -0.04951        0.54704        1.71144
C         -0.57957        0.95817       -0.33832
C         -0.48568        1.89060       -1.37688
H         -0.92907        1.65707       -2.34181
C          0.16884        3.10521       -1.18694
H          0.23343        3.81612       -2.00511
C         -1.32430       -0.34927       -0.59391
H         -1.31396       -0.51887       -1.67567
C         -2.77584       -0.30518       -0.14610
C         -3.14078        0.12223        1.13424
H         -2.37970        0.46175        1.83039
C         -4.47836        0.12835        1.52159
H         -4.74711        0.46440        2.51854
C         -5.46983       -0.29107        0.63524
H         -6.51221       -0.28220        0.93833
C         -5.11451       -0.71696       -0.64221
H         -5.87831       -1.04239       -1.34194
C         -3.77504       -0.72441       -1.02771
H         -3.50011       -1.05712       -2.02546
C         -0.58308       -1.52601        0.05491
O         -0.75666       -1.81126        1.22628
C          0.36067       -2.30741       -0.82796
H          0.77098       -3.13765       -0.24683
H         -0.22190       -2.71959       -1.66120
C          1.46904       -1.41613       -1.39386
H          2.04708       -1.98316       -2.14244
H          1.01901       -0.56841       -1.92199
N          2.33373       -0.89204       -0.33931
C          2.98962        0.34236       -0.76875
H          2.22484        1.08907       -1.01035
H          3.60611        0.17503       -1.67142
C          3.87685        0.86941        0.34436
H          4.40571        1.77000        0.02292
H          3.26232        1.11140        1.22470
O          4.86610       -0.08713        0.70308
C          4.24867       -1.29518        1.12725
H          5.05260       -1.99400        1.36970
H          3.65447       -1.10705        2.03350
C          3.35927       -1.86600        0.03613
H          2.88604       -2.78314        0.40073
H          3.98454       -2.12935       -0.83693
