32
id_2185_cb.log	Energy: -411635.6305403
C          3.23966       -1.03745       -0.38777
H          3.89442       -1.86878       -0.63355
C          2.78482       -0.86358        0.92068
H          3.08410       -1.56097        1.69853
C          1.94499        0.20500        1.23310
H          1.59303        0.33564        2.25499
C          1.54784        1.12178        0.25143
C          2.00643        0.93246       -1.05760
H          1.70574        1.63494       -1.83263
C          2.84418       -0.13739       -1.37787
H          3.19003       -0.26502       -2.40016
C          0.62703        2.26623        0.60488
H          0.92839        2.68198        1.57348
H          0.73518        3.06478       -0.13983
C         -0.84996        1.84714        0.68030
H         -0.95273        1.03748        1.41382
H         -1.43562        2.69514        1.06046
C         -1.41912        1.41966       -0.67141
H         -1.28691        2.24948       -1.38000
H         -0.83663        0.58136       -1.07610
C         -2.90150        1.04039       -0.62621
H         -3.26258        0.90521       -1.65467
H         -3.47264        1.87828       -0.20304
C         -3.22483       -0.23348        0.16302
H         -4.30938       -0.38867        0.12650
H         -2.96748       -0.11015        1.22194
C         -2.53015       -1.48637       -0.38755
H         -2.53796       -1.47262       -1.48313
H         -3.09031       -2.37601       -0.07099
C         -1.09711       -1.71220        0.10507
O         -0.89519       -1.65579        1.35265
O         -0.20634       -1.99362       -0.74965
