18
id_2299_cb.log	Energy: -241888.0695712
C          3.02292        0.49692       -0.00000
H          3.67988       -0.37878        0.00003
H          3.27220        1.09966        0.88146
H          3.27221        1.09960       -0.88150
C          1.57206        0.07981        0.00000
C          1.18823       -1.26285        0.00000
H          1.95465       -2.03732        0.00001
C         -0.15740       -1.63505        0.00000
H         -0.42985       -2.68923        0.00001
C         -1.20250       -0.67862       -0.00000
C         -0.80797        0.69750       -0.00000
C          0.54360        1.03582        0.00000
H          0.81183        2.09381        0.00000
C         -1.87732        1.75686        0.00000
H         -2.52849        1.66995       -0.87879
H         -1.43677        2.75868       -0.00002
H         -2.52846        1.66997        0.87882
O         -2.46962       -1.02859       -0.00000
