27
id_2346_ca.log	Energy: -279310.9931744
C         -1.84343        1.88636        0.39555
H         -0.88526        2.05649        0.89840
H         -2.63434        2.29666        1.02981
H         -1.83901        2.43989       -0.54913
C         -2.08192        0.39419        0.17004
H         -3.06639        0.27220       -0.30121
C         -2.08175       -0.35437        1.50232
H         -1.13623       -0.20967        2.03472
H         -2.25493       -1.43082        1.39263
H         -2.88414        0.03913        2.13345
C         -1.05912       -0.13340       -0.85367
C          0.38451       -0.10316       -0.40855
C          1.19281        0.94869       -0.84767
H          0.77651        1.69490       -1.51962
C          2.51885        1.04373       -0.43357
H          3.13469        1.86660       -0.78256
C          3.05383        0.07833        0.41664
H          4.08923        0.14602        0.73537
C          2.25604       -0.97719        0.85376
H          2.66674       -1.73371        1.51485
C          0.92625       -1.06674        0.44815
H          0.31955       -1.89357        0.80929
N         -1.44283       -1.52792       -1.27585
H         -1.42589       -2.19590       -0.49667
H         -0.80512       -1.88004       -1.99948
H         -1.15727        0.46220       -1.76406
H         -2.39469       -1.53357       -1.66275
