24
id_2241_ca.log	Energy: -254649.4318796
C          2.51832       -0.53772        1.25567
H          2.10217       -1.55130        1.27049
H          2.20284       -0.02552        2.16979
H          3.60964       -0.62277        1.26730
C          2.05856        0.21900        0.00591
H          2.51042        1.21746        0.02115
C          2.52467       -0.50206       -1.26244
H          3.61593       -0.58825       -1.27033
H          2.21497        0.03654       -2.16326
H          2.10721       -1.51417       -1.30854
C          0.55486        0.40901        0.00450
C         -0.01394        1.68470        0.01344
H          0.63842        2.55353        0.02167
C         -1.39666        1.86179        0.00807
H         -1.81644        2.86218        0.01128
C         -2.24564        0.75999       -0.00459
H         -3.32526        0.87305       -0.01123
C         -1.66739       -0.50099       -0.01256
C         -0.29771       -0.70052       -0.00883
H          0.10249       -1.71182       -0.01936
N         -2.54947       -1.67859       -0.00015
H         -2.10162       -2.49124       -0.44333
H         -3.42863       -1.49496       -0.50062
H         -2.79630       -1.95176        0.96112
