25
id_2261_cb.log	Energy: -349238.9193144
C          3.78645       -0.31381        0.00560
H          4.87183       -0.28473        0.00899
C          3.12837       -1.54661       -0.00028
H          3.70815       -2.46457       -0.00151
C          1.73542       -1.60817       -0.00480
H          1.22367       -2.56676       -0.00965
C          1.01455       -0.41580       -0.00306
C          1.67486        0.82592        0.00284
C          3.06255        0.88100        0.00711
H          3.57938        1.83684        0.01170
C          0.66896        1.95507        0.00343
H          0.78716        2.60225       -0.87405
H          0.78182        2.59675        0.88564
C         -0.65006        1.21635       -0.00270
C         -0.43639       -0.17220       -0.00682
C         -1.49597       -1.07316       -0.00959
H         -1.32272       -2.14704       -0.01055
C         -2.80760       -0.57923       -0.00881
C         -3.02028        0.81061       -0.00323
H         -4.04133        1.18298       -0.00010
C         -1.95077        1.70382       -0.00005
H         -2.14373        2.77341        0.00768
N         -3.89504       -1.45602       -0.07767
H         -3.69685       -2.36830        0.32035
H         -4.74254       -1.07154        0.32735
