58
id_2097_ca.log	Energy: -1465541.8595341
C          1.88525       -1.45665        2.54698
H          2.41232       -0.50211        2.66893
H          2.60552       -2.25019        2.77574
H          1.07568       -1.49985        3.27984
C          1.34208       -1.60322        1.15334
C         -0.01576       -1.76438        0.90238
H         -0.69744       -1.78868        1.75124
C         -0.52530       -1.89744       -0.39836
C          0.37331       -1.88844       -1.46020
H          0.00726       -1.99840       -2.47849
C          1.74853       -1.73400       -1.24578
H          2.42214       -1.72079       -2.09602
C          2.21984       -1.57704        0.05239
O          3.54308       -1.39062        0.37162
C          4.46467       -1.34313       -0.69234
H          4.49845       -2.29595       -1.23697
H          4.21984       -0.54649       -1.40698
C          5.85257       -1.07267       -0.16556
O          6.79460       -0.89939       -0.91461
O          5.95002       -1.05939        1.16064
H          6.87872       -0.88108        1.40978
C         -2.00378       -2.12078       -0.62960
H         -2.29715       -3.01870       -0.07586
H         -2.17930       -2.33412       -1.69766
N         -2.91532       -1.04270       -0.17848
C         -4.24879       -1.66009       -0.05535
H         -4.47604       -2.23229       -0.97422
H         -4.21150       -2.38210        0.76593
C         -5.37051       -0.68264        0.18204
C         -6.58873       -1.14402        0.69481
H         -6.69161       -2.19593        0.95368
C         -7.65930       -0.27337        0.87501
H         -8.59885       -0.64281        1.27576
C         -7.51867        1.07654        0.53993
H         -8.34886        1.76371        0.67604
C         -6.30849        1.53834        0.03096
H         -6.19112        2.58782       -0.23100
C         -5.22928        0.66560       -0.15187
C         -3.90740        1.17340       -0.66522
H         -3.40317        1.71573        0.14414
H         -4.06193        1.89084       -1.47880
C         -3.00523        0.04058       -1.17218
C         -1.64326        0.63005       -1.52774
O         -1.25826        0.68947       -2.69309
N         -0.94813        1.12462       -0.46454
H         -1.37765        0.92619        0.43557
C          0.41396        1.44820       -0.41073
C          1.21878        1.60545       -1.54573
H          0.77914        1.52524       -2.52935
C          2.58647        1.83223       -1.42512
H          3.19842        1.92916       -2.31624
C          3.15840        1.91961       -0.16315
C          2.38268        1.82916        0.98678
H          2.82511        1.92346        1.97334
C          1.02062        1.60476        0.84846
Cl         0.05659        1.50633        2.30060
Cl         4.88288        2.15304       -0.00572
H         -3.40625       -0.35214       -2.12162
