38
id_2070_ca.log	Energy: -1246293.9585231
C         -5.65737       -1.92051        1.37037
H         -5.71771       -1.57929        2.41087
H         -5.12578       -2.87292        1.35347
H         -6.67441       -2.04589        0.99522
C         -4.92514       -0.89216        0.57519
N         -3.59898       -1.02210        0.46512
C         -3.00467       -0.05346       -0.22870
N         -3.60409        0.99265       -0.79284
C         -4.92323        1.01545       -0.61097
N         -5.64004        0.11081        0.05202
O         -5.52652        2.05981       -1.16697
C         -6.95043        2.17959       -1.02580
H         -7.22119        2.25679        0.02848
H         -7.44957        1.32494       -1.48532
H         -7.20722        3.09726       -1.55213
N         -1.63057       -0.06696       -0.40612
H         -1.26988        0.74433       -0.90330
C         -0.73012       -1.03344       -0.02191
O         -0.99204       -2.11211        0.47132
N          0.58660       -0.63695       -0.31497
H          0.78505        0.36834       -0.24966
S          1.84262       -1.55029        0.33840
O          1.73639       -2.90049       -0.19828
O          1.90271       -1.38365        1.78635
C          3.25507       -0.78949       -0.41776
C          4.07485       -1.55461       -1.28817
H          3.85888       -2.57027       -1.59518
C          5.17726       -0.84405       -1.67825
H          5.97187       -1.16952       -2.33844
S          5.22274        0.72447       -0.99575
C          3.74361        0.47369       -0.15966
C          3.12536        1.54493        0.64607
O          1.95830        1.52482        0.99447
O          3.97604        2.52146        0.91973
C          3.44417        3.64134        1.65534
H          4.27685        4.33257        1.76404
H          3.09046        3.30361        2.63059
H          2.63121        4.09853        1.08900
