23
id_2310_ca.log	Energy: -264712.6685038
C         -0.07328        0.50436        1.50053
H         -0.82402        0.99668        2.12407
H          0.88655        0.56632        2.01873
C         -0.44176       -0.97267        1.28236
H         -1.20167       -1.32722        1.97830
H          0.42415       -1.63651        1.32820
N         -1.01457       -1.11419       -0.10346
C         -2.09748       -0.09189       -0.32414
H         -2.63395       -0.38338       -1.22703
H         -2.76696       -0.16621        0.53382
C         -1.43310        1.28953       -0.44163
H         -1.39338        1.60817       -1.48691
H         -2.02135        2.02222        0.11447
C         -0.01521        1.20852        0.13839
H          0.42575        2.20192        0.22968
C          0.82501        0.35592       -0.84491
C          0.06155       -0.95913       -1.13560
H          0.69887       -1.84164       -1.08541
H         -0.42979       -0.91858       -2.10773
C          2.16152        0.09505       -0.29911
N          3.21066       -0.10733        0.14698
H          0.95887        0.90228       -1.78245
H         -1.41915       -2.05148       -0.19778
