16
id_2016_cb.log	Energy: -217387.9487921
C          3.27509        0.31742        0.13792
H          3.26751        0.70835        1.16206
H          3.30032        1.17408       -0.54562
H          4.20279       -0.24824        0.00172
C          2.04519       -0.54869       -0.12106
H          2.05168       -1.41115        0.55866
H          2.08646       -0.95480       -1.14070
C          0.74056        0.22565        0.05759
H          0.72935        1.07990       -0.63078
H          0.70241        0.64202        1.07381
C         -0.48874       -0.64391       -0.18095
H         -0.47154       -1.52004        0.47743
H         -0.47470       -1.03371       -1.20925
C         -1.83479        0.05828       -0.00102
O         -1.88580        1.31640       -0.11567
O         -2.84147       -0.67752        0.22789
