23
id_2178_ca.log	Energy: -626185.1107482
C          4.62862        0.10614        0.01143
H          5.71246        0.17546        0.02272
C          3.99296       -1.03725        0.49677
H          4.58000       -1.85983        0.89521
C          2.60218       -1.12682        0.48174
H          2.11698       -2.01399        0.88012
C          1.82382       -0.07312       -0.01785
C          2.47211        1.07161       -0.50255
H          1.88590        1.89074       -0.91092
C          3.86285        1.16004       -0.48867
H          4.34835        2.05127       -0.87589
C          0.34097       -0.16899       -0.03414
C         -0.29700       -1.39066       -0.29748
H          0.28831       -2.27938       -0.51196
C         -1.68430       -1.47036       -0.31496
H         -2.18190       -2.41144       -0.52822
C         -2.44651       -0.33306       -0.06905
C         -1.83191        0.89326        0.19710
C         -0.43976        0.96278        0.21163
H          0.01822        1.92092        0.44086
O         -2.52195        2.04176        0.45460
H         -3.48197        1.88231        0.44477
Cl        -4.19146       -0.42657       -0.09044
