29
id_2343_cb.log	Energy: -303676.6264750
C         -2.64571       -2.09345        0.14074
H         -2.64956       -3.13942       -0.18074
H         -3.64240       -1.85741        0.53119
H         -1.93358       -2.00491        0.96796
C         -2.28020       -1.16503       -1.01504
H         -2.92717       -1.38131       -1.87279
H         -1.25340       -1.37217       -1.34132
C         -2.41782        0.31803       -0.66931
H         -3.46545        0.54556       -0.43558
H         -2.14991        0.92405       -1.54621
C         -1.56298        0.78422        0.51330
C         -0.09642        0.44302        0.31437
C          0.56396       -0.43304        1.17442
H          0.01940       -0.87427        2.00668
C          1.91203       -0.74568        0.98731
H          2.40645       -1.42942        1.67309
C          2.63695       -0.19102       -0.06678
C          1.97248        0.69047       -0.93090
H          2.51992        1.13534       -1.75894
C          0.63159        1.00215       -0.74486
H          0.14207        1.69178       -1.43028
C          4.09119       -0.52070       -0.28196
H          4.46084       -1.19908        0.49126
H          4.70711        0.38453       -0.26472
H          4.24630       -0.99773       -1.25556
N         -1.81598        2.21775        0.72964
H         -1.50489        2.71463       -0.10674
H         -1.19353        2.53885        1.47123
H         -1.90080        0.26297        1.41622
