37
id_2189_ca.log	Energy: -2003578.6717319
C         -2.22386       -2.69548        1.27696
H         -2.75144       -3.65539        1.25646
H         -2.97777       -1.91498        1.41816
H         -1.57657       -2.68047        2.16060
C         -1.36821       -2.55735        0.00000
C         -2.22385       -2.69548       -1.27696
H         -2.75144       -3.65539       -1.25646
H         -1.57657       -2.68048       -2.16060
H         -2.97777       -1.91498       -1.41816
C         -0.41264       -3.75941        0.00000
H         -1.00856       -4.67789        0.00000
H          0.22517       -3.77508        0.89008
H          0.22517       -3.77509       -0.89007
C         -0.59950       -1.22314       -0.00000
C          0.79953       -1.21812       -0.00000
H          1.35151       -2.14912        0.00000
C          1.49603       -0.02195       -0.00000
C          0.84311        1.20070       -0.00000
H          1.42980        2.11039       -0.00000
C         -0.55250        1.25606       -0.00000
C         -1.25378        0.02900       -0.00000
O         -2.62193        0.12255       -0.00000
H         -3.03094       -0.75421       -0.00000
C         -1.27859        2.61157        0.00000
C         -2.14488        2.75909        1.26422
H         -2.61575        3.74924        1.26678
H         -1.52443        2.67833        2.16443
H         -2.93382        2.00727        1.31965
C         -2.14488        2.75909       -1.26422
H         -2.61575        3.74925       -1.26678
H         -2.93382        2.00727       -1.31965
H         -1.52443        2.67833       -2.16443
C         -0.28557        3.78205        0.00000
H         -0.85154        4.71947        0.00000
H          0.35390        3.77950       -0.88973
H          0.35390        3.77950        0.88973
Br         3.39384       -0.05616        0.00000
