24
id_2000_ca.log	Energy: -337950.7265399
C         -4.02803       -0.71088        0.64794
H         -3.96278       -1.20720        1.62285
H         -4.43998       -1.42749       -0.06811
H         -4.73635        0.11764        0.75182
C         -2.67510       -0.21673        0.20402
C         -2.00856       -0.79356       -0.87945
H         -2.47912       -1.61013       -1.42272
C         -0.74826       -0.33859       -1.27584
H         -0.24985       -0.80561       -2.12271
C         -0.11802        0.70916       -0.60201
C         -0.78744        1.29103        0.48352
H         -0.32084        2.11499        1.02066
C         -2.04259        0.83698        0.87848
H         -2.54482        1.30841        1.72104
C          1.24800        1.20859       -1.01554
H          1.54477        0.73876       -1.95856
H          1.20741        2.28926       -1.19004
C          2.32027        0.95240        0.04415
H          2.04726        1.39314        1.00818
H          3.27184        1.41234       -0.25209
C          2.60509       -0.50908        0.25095
O          2.31645       -1.40257       -0.52344
O          3.26030       -0.74712        1.39962
H          3.45635       -1.70245        1.46288
