24
id_222_cb.log	Energy: -384847.0085090
C         -3.76939       -1.39235       -0.09804
H         -4.40948       -0.60600        0.31563
H         -4.15989       -2.36952        0.18548
H         -3.73887       -1.31042       -1.18958
O         -2.45904       -1.32181        0.45199
C         -1.73761       -0.18075        0.21824
C         -2.22118        0.91166       -0.50270
H         -3.22013        0.91472       -0.92325
C         -1.38916        2.02307       -0.67511
H         -1.76273        2.87794       -1.23212
C         -0.10466        2.04879       -0.14441
H          0.52998        2.92042       -0.28614
C          0.37909        0.95051        0.58373
C         -0.44553       -0.15857        0.75864
H         -0.09839       -1.02327        1.31984
C          1.79253        0.94948        1.11446
H          2.05647        1.95477        1.45962
H          1.87005        0.27230        1.97122
C          2.80122        0.51837        0.03584
H          3.81270        0.55661        0.45729
H          2.75761        1.20656       -0.81361
C          2.53795       -0.90979       -0.44383
O          2.57490       -1.82741        0.42673
O          2.29704       -1.09537       -1.67188
