32
id_2181_cb.log	Energy: -731173.0723108
C          4.63381        1.29601        0.59787
H          4.49565        2.01711       -0.21560
H          5.71021        1.17112        0.75662
H          4.20715        1.72059        1.51353
C          4.01727       -0.06432        0.26093
C          4.70044       -0.60866       -1.00468
H          5.78251       -0.66945       -0.84144
H          4.51912        0.05117       -1.86075
H          4.34126       -1.61066       -1.26044
C          4.28146       -1.02323        1.43412
H          3.79870       -0.66206        2.34932
H          5.35972       -1.09113        1.61879
H          3.91039       -2.03177        1.22467
C          2.50996        0.02747        0.02070
C          1.79207       -1.13352       -0.31655
H          2.30887       -2.08427       -0.41168
C          0.42119       -1.10210       -0.53726
H         -0.11747       -2.00825       -0.79896
C         -0.24673        0.11729       -0.42496
C          0.42683        1.28644       -0.09051
H         -0.10622        2.22883       -0.00503
C          1.80320        1.23188        0.12657
H          2.31761        2.15191        0.38034
S         -2.00444        0.16736       -0.65050
O         -2.38466        1.53517       -1.04627
O         -2.39594       -0.93576       -1.54790
C         -2.67167       -0.17619        0.97581
H         -2.24435       -1.13450        1.28066
H         -2.32197        0.63086        1.62492
C         -4.21581       -0.22648        0.90770
O         -4.81012        0.87889        0.94091
O         -4.73457       -1.36642        0.82259
