46
id_202_cb.log	Energy: -521819.7422177
C         -4.57200       -2.55140        0.14214
H         -5.46196       -3.13915        0.34506
C         -3.38002       -2.83192        0.80212
H         -3.33508       -3.64187        1.52420
C         -2.23335       -2.07845        0.54051
H         -1.31328       -2.31889        1.06420
C         -2.26451       -1.03245       -0.38367
C         -3.47168       -0.75839       -1.03996
H         -3.50731        0.05800       -1.75870
C         -4.61430       -1.50783       -0.78424
H         -5.53827       -1.28056       -1.30768
C         -1.05708       -0.15771       -0.69436
H         -0.99201       -0.07675       -1.78743
C          0.27328       -0.73791       -0.19240
H          0.24842       -0.79831        0.90152
H          0.38526       -1.76029       -0.57330
C          1.46048        0.10510       -0.64988
H          1.45653        1.07029       -0.10858
H          1.33675        0.34317       -1.71420
N          2.75679       -0.55830       -0.49707
C          3.03933       -0.80530        0.92124
H          2.26198       -1.45684        1.32914
H          3.00050        0.14658        1.48827
C          4.40345       -1.45738        1.12189
H          4.56929       -1.61673        2.19260
H          4.40032       -2.44357        0.64098
C          5.51228       -0.59829        0.51829
H          6.48291       -1.09792        0.60344
H          5.58140        0.34513        1.07690
C          5.18192       -0.29106       -0.94096
H          5.21539       -1.21608       -1.52993
H          5.91450        0.39923       -1.37241
C          3.79121        0.32171       -1.05158
H          3.78464        1.29718       -0.52602
H          3.54483        0.52043       -2.10001
C         -1.27341        1.25004       -0.15758
C         -1.23736        2.35568       -1.00903
H         -1.06893        2.20296       -2.07252
C         -1.41183        3.64679       -0.50885
H         -1.38221        4.49576       -1.18540
C         -1.62301        3.84525        0.85286
H         -1.75931        4.84861        1.24445
C         -1.66122        2.74571        1.71205
H         -1.82851        2.89219        2.77504
C         -1.48953        1.45961        1.20944
H         -1.52922        0.60469        1.88168
