64
id_2106_cb.log	Energy: -1421057.6982290
C         -9.46696       -2.45217       -0.21502
H        -10.36269       -3.02544        0.00655
C         -8.26614       -3.10501       -0.49251
H         -8.22233       -4.19069       -0.48769
C         -7.11674       -2.36590       -0.77926
H         -6.18243       -2.87890       -0.99762
C         -7.14921       -0.96731       -0.79351
C         -8.36072       -0.32298       -0.51247
H         -8.39901        0.76478       -0.52148
C         -9.51164       -1.05633       -0.22758
H        -10.44374       -0.53932       -0.01648
C         -5.89740       -0.16287       -1.05437
H         -6.13242        0.70570       -1.68083
H         -5.17502       -0.78451       -1.59186
C         -5.29069        0.33649        0.26357
C         -4.86352       -0.87024        1.13788
O         -4.01598       -1.67684        0.66287
O         -5.39070       -0.96908        2.28354
N         -4.22776        1.33430        0.06467
C         -3.12358        0.92683       -0.81487
H         -3.53573        0.58087       -1.76620
H         -2.55361        0.08979       -0.37973
C         -2.19231        2.10878       -1.07348
H         -2.76172        2.90259       -1.57435
H         -1.39706        1.79905       -1.76011
C         -1.59951        2.67138        0.22325
H         -1.11307        3.62831       -0.00125
C         -2.74640        2.95580        1.20585
H         -2.34699        3.22464        2.19197
H         -3.31988        3.81756        0.84250
C         -3.69480        1.76971        1.36036
H         -4.53819        2.05332        1.99992
H         -3.17531        0.93620        1.86842
C         -0.56266        1.75286        0.88195
H         -1.05293        0.86337        1.29339
H         -0.13010        2.30140        1.74243
N          0.51214        1.27973        0.00470
C          1.25373        2.40487       -0.56880
H          0.57458        3.01335       -1.17105
H          1.64818        3.05299        0.23927
C          2.40320        1.93279       -1.45381
H          2.00671        1.36786       -2.30684
H          2.94627        2.80032       -1.84300
C          3.34393        1.03873       -0.66610
H          3.83370        1.63557        0.11491
C          2.56263       -0.11443       -0.05107
H          3.20095       -0.74450        0.57671
H          2.16621       -0.73807       -0.86192
C          1.41855        0.43916        0.79150
H          1.83804        1.01892        1.63753
H          0.84088       -0.38530        1.22081
O          4.34067        0.57073       -1.58994
C          5.48459        0.00234       -1.12128
C          6.33892       -0.53527       -2.09272
H          6.04904       -0.48668       -3.13743
C          7.53850       -1.11815       -1.72027
H          8.19967       -1.53411       -2.47389
C          7.90738       -1.17860       -0.37546
C          7.05572       -0.64207        0.58558
C          5.84421       -0.05077        0.22615
H          5.21115        0.35235        1.00732
Cl         7.47057       -0.69393        2.27504
Cl         9.41710       -1.92598        0.05975
H         -6.08061        0.85459        0.82018
