30
id_2283_ca.log	Energy: -256912.3610919
C         -4.39663       -0.28912       -0.24588
H         -4.40465       -0.28514       -1.34106
H         -5.31922        0.18607        0.09968
H         -4.41002       -1.33284        0.08533
C         -3.16670        0.43530        0.29040
H         -3.18421        0.43668        1.38710
H         -3.18386        1.48480       -0.02684
C         -1.86982       -0.21388       -0.19052
H         -1.82771       -0.18737       -1.28742
H         -1.85467       -1.26694        0.11285
C         -0.66095        0.51238        0.37715
H         -0.58817        0.39752        1.46260
H         -0.70325        1.57664        0.13368
N          0.62002       -0.01075       -0.18668
C          0.85529       -1.47674        0.08160
H          0.42892       -1.68443        1.06476
H          0.32126       -2.05193       -0.67327
C          2.38318       -1.65916        0.05580
H          2.71713       -2.05946        1.01463
H          2.68684       -2.35508       -0.72688
C          2.95721       -0.25195       -0.17844
H          3.13323       -0.07278       -1.24507
H          3.89190       -0.07701        0.35678
C          1.86604        0.69278        0.30604
C          1.96034        2.11251       -0.20994
H          1.89056        2.12653       -1.30290
H          2.93268        2.52212        0.07621
H          1.18538        2.75886        0.20813
H          1.79156        0.66441        1.39843
H          0.58841        0.12190       -1.20718
