18
id_2007_ca.log	Energy: -350889.7356745
C         -0.49576       -1.17940        0.53095
H         -0.00613       -2.11912        0.77284
C         -1.82666       -1.18587        0.11577
H         -2.39352       -2.10718        0.02784
C         -2.42197        0.02854       -0.18400
C         -1.75544        1.23937       -0.08720
H         -2.26811        2.16482       -0.32940
C         -0.42576        1.22337        0.33020
H          0.11930        2.16008        0.41687
C          0.21380        0.01960        0.64243
C          1.67021        0.02273        1.06262
H          1.90112       -0.87830        1.63780
H          1.89976        0.90526        1.66237
C          2.55505        0.05465       -0.15775
O          3.16354        1.03147       -0.55301
O          2.58435       -1.12135       -0.80049
H          3.14008       -1.04192       -1.60062
F         -3.71739        0.03306       -0.58642
