20
id_276_ca.log	Energy: -333619.2118805
C          0.15962        2.18604        0.06795
H          0.17308        3.26214        0.19871
C          1.34457        1.49588       -0.17580
H          2.28516        2.03650       -0.23599
C          1.34120        0.10900       -0.35001
C          0.14058       -0.59273       -0.27939
H          0.11147       -1.66821       -0.41510
C         -1.02497        0.12068       -0.03530
C         -1.04640        1.49849        0.14094
H         -1.98096        2.01321        0.32706
N         -2.28889       -0.61567        0.03669
O         -3.31174        0.01456        0.24923
O         -2.26100       -1.82595       -0.11784
C          2.62987       -0.63029       -0.57995
H          3.36287       -0.01324       -1.09863
H          2.47395       -1.55717       -1.13073
N          3.24621       -1.01155        0.73518
H          2.61709       -1.62173        1.27104
H          3.44025       -0.17938        1.30532
H          4.13100       -1.51285        0.59351
