16
id_211_ca.log	Energy: -225475.8772989
C         -0.70190        1.21412       -0.00947
H         -1.26022        2.14595       -0.01783
C          0.66620        1.24490        0.00067
H          1.21346        2.18010        0.00459
C          1.39740        0.03692        0.00328
N          0.68793       -1.10332       -0.00112
C         -0.67584       -1.16377        0.00011
H         -1.10152       -2.15867        0.00229
C         -1.41991       -0.01098       -0.00852
N         -2.80889       -0.02058       -0.08800
H         -3.22427       -0.88448        0.24683
H         -3.23468        0.77860        0.37127
N          2.74412       -0.01283        0.06347
H          3.21297       -0.87914       -0.17718
H          3.24385        0.83676       -0.16893
H          1.19256       -1.98921        0.00206
