13
id_2366_cb.log	Energy: -767231.6089054
C         -0.39610       -0.88845        0.00448
H         -0.58152       -1.95741        0.00887
C         -1.44267        0.03022        0.00030
C         -1.15404        1.38478       -0.00412
H         -1.95609        2.11756       -0.00532
N          0.09284        1.85791       -0.00267
C          1.12059        1.00046       -0.00229
C          0.89081       -0.39306        0.00054
Cl         2.24471       -1.48928       -0.00383
N          2.38227        1.52460       -0.06568
H          3.13947        0.95929        0.29826
H          2.43778        2.50284        0.19297
Cl        -3.09630       -0.51681        0.00326
