13
id_263_cb.log	Energy: -296204.4672796
C          2.19604        0.54453       -0.06492
H          2.22009        0.80254       -1.12742
H          3.22509        0.51818        0.30025
H          1.66684        1.34374        0.46805
N          1.60177       -0.78537        0.09015
H          1.49438       -0.97539        1.08518
C          0.30005       -0.92215       -0.53309
H          0.37788       -0.75377       -1.61113
H         -0.07458       -1.93629       -0.37293
C         -0.76983        0.01414       -0.01428
F         -0.59284        1.28725       -0.41347
F         -1.99046       -0.35527       -0.43901
F         -0.80333        0.03241        1.33034
