18
id_2305_cb.log	Energy: -288950.7896996
C          2.71359       -0.30396        0.00000
H          3.76125       -0.59269        0.00000
C          2.36182        1.06819        0.00000
H          3.14025        1.82608        0.00000
C          1.03399        1.43539        0.00000
H          0.76003        2.48647        0.00000
C          0.00000        0.46505        0.00000
C          0.35178       -0.91853        0.00000
C          1.73280       -1.26796        0.00000
H          1.99883       -2.32308        0.00000
C         -0.66586       -1.91184        0.00000
H         -0.38803       -2.96253        0.00000
C         -1.98714       -1.51567        0.00000
H         -2.77281       -2.26886        0.00000
C         -2.35581       -0.15601        0.00000
H         -3.40796        0.12014        0.00000
C         -1.40109        0.87671        0.00000
O         -1.72452        2.13578        0.00000
