44
id_2059_ca.log	Energy: -637669.4981308
C          4.91741       -0.64580       -1.21849
H          5.45703       -0.28841       -0.34253
H          5.04336        0.04782       -2.04919
H          5.26413       -1.64091       -1.49519
N          3.46419       -0.73606       -0.90669
C          3.15292       -1.64605        0.26510
C          3.57419       -0.78063        1.46138
H          2.96261       -1.02706        2.33191
H          4.61736       -0.96710        1.72136
C          3.37126        0.68411        0.99170
H          4.31080        1.23836        1.01759
H          2.64998        1.22579        1.60409
C          2.86567        0.57743       -0.45749
C          1.34456        0.41850       -0.58798
C          0.84839       -0.65593        0.40483
C          1.65374       -1.93928        0.22997
H          1.41286       -2.63667        1.03628
H          1.38869       -2.41081       -0.72331
O         -0.52371       -0.96016        0.13611
C         -1.44899       -0.21471        0.76955
O         -1.16517        0.61776        1.60897
C         -2.83146       -0.50620        0.31696
C         -3.11410       -1.54469       -0.57513
H         -2.31424       -2.17389       -0.94938
C         -4.42757       -1.76594       -0.97559
H         -4.65219       -2.57350       -1.66454
C         -5.45202       -0.95075       -0.49496
H         -6.47523       -1.12491       -0.81303
C         -5.16778        0.08803        0.39139
H         -5.96600        0.72268        0.76203
C         -3.85807        0.31044        0.80030
H         -3.61964        1.11426        1.48946
C          0.63081        1.73626       -0.38061
O          1.05456        2.66909        0.26769
O         -0.55079        1.73748       -0.99972
C         -1.39302        2.87001       -0.73482
H         -2.32945        2.66384       -1.25000
H         -0.93205        3.77900       -1.12507
H         -1.55775        2.96495        0.34066
H          3.73342       -2.56130        0.14879
H          3.22911        1.36901       -1.11397
H          1.09764        0.07265       -1.59874
H          0.92812       -0.28618        1.42936
H          2.98746       -1.07729       -1.75086
