18
id_2155_cb.log	Energy: -426653.5747406
C         -0.21007        1.30326       -0.11822
H         -0.70295        2.26158       -0.24391
C          1.17512        1.22709       -0.16955
H          1.77890        2.11102       -0.33813
C          1.77070       -0.01876        0.00023
C          1.03740       -1.17934        0.22179
H          1.53629       -2.13021        0.36731
C         -0.34801       -1.08473        0.26661
H         -0.92597       -1.98114        0.46885
C         -0.98067        0.15225        0.08569
C         -2.47109        0.31029        0.12987
O         -2.99496        1.37776        0.55202
N         -3.17552       -0.71510       -0.31820
H         -2.70465       -1.53284       -0.69691
O         -4.52343       -0.73225       -0.35035
N          3.22962       -0.11123       -0.04869
O          3.74771       -1.20872        0.09999
O          3.87061        0.91264       -0.23761
