39
id_2099_ca.log	Energy: -799439.5633057
C         -6.02561       -1.39558       -0.81276
H         -5.53181       -2.24866       -1.28604
H         -7.09212       -1.43641       -1.05167
H         -5.91043       -1.47520        0.27112
C         -5.44123       -0.09544       -1.32336
H         -5.54111       -0.01205       -2.40620
H         -5.90775        0.77282       -0.85462
O         -4.01854       -0.04165       -1.09625
C         -3.63052        0.27420        0.15304
O         -4.41680        0.58445        1.04173
N         -2.28388        0.18620        0.31945
C         -1.35660        0.10719       -0.81129
H         -1.07903        1.12276       -1.12743
H         -1.85083       -0.38156       -1.64751
C         -0.11471       -0.68605       -0.42070
H         -0.39650       -1.72068       -0.19662
H          0.58841       -0.69691       -1.25972
C          0.56682       -0.11223        0.83010
C         -0.45520        0.00249        1.95681
H          0.00112        0.49637        2.81891
H         -0.72572       -1.01791        2.24861
C         -1.71408        0.75604        1.53810
H         -1.49927        1.82306        1.37890
H         -2.45466        0.68907        2.33316
N          1.68161       -0.94693        1.27140
H          1.40590       -1.86017        1.62223
C          2.80518       -0.90940        0.49648
C          3.82281       -1.90724        0.41111
H          3.78195       -2.85844        0.92690
C          4.83683       -1.51696       -0.40844
H          5.71962       -2.08614       -0.67143
S          4.61794        0.04665       -1.10061
C          3.09742        0.21086       -0.27036
C          2.27493        1.36874       -0.14439
N          1.14143        1.21725        0.55052
N          2.60780        2.55779       -0.62449
H          1.99269        3.35543       -0.50216
H          3.52757        2.73645       -1.00869
H          0.54274        2.02960        0.67403
