41
id_2355_ca.log	Energy: -496082.5914602
C         -5.10101        1.19076       -0.30899
H         -5.47795        1.95925       -0.98833
H         -5.68229        1.23745        0.61845
H         -5.25768        0.21823       -0.78227
C         -3.63512        1.47169       -0.03556
H         -3.03082        1.28138       -0.92542
C         -3.38581        2.88348        0.46583
H         -3.68907        3.59534       -0.30511
H         -2.32583        3.04261        0.68602
H         -3.97182        3.08006        1.37004
N         -3.11443        0.52324        1.02459
H         -2.11874        0.73545        1.17924
C         -3.25475       -0.94161        0.76875
H         -2.85054       -1.45179        1.64542
H         -4.31854       -1.16882        0.68570
C         -2.49678       -1.39819       -0.48255
C         -1.03179       -1.03663       -0.39809
C         -0.21889       -1.63545        0.57003
H         -0.63899       -2.37874        1.24258
C          1.12130       -1.28715        0.67793
H          1.73369       -1.75046        1.44607
C          1.68481       -0.32418       -0.17227
C          0.86605        0.27200       -1.13781
H          1.28587        1.00128       -1.82434
C         -0.47580       -0.08240       -1.25041
H         -1.09364        0.37731       -2.01798
C          3.11536        0.05379       -0.04800
C          4.08005       -0.90107        0.29933
H          3.78136       -1.93377        0.45553
C          5.42043       -0.54534        0.41974
H          6.15499       -1.30026        0.68284
C          5.81964        0.77107        0.19542
H          6.86487        1.04847        0.29003
C          4.86850        1.72911       -0.15150
H          5.16882        2.75859       -0.32103
C          3.52801        1.37383       -0.27210
H          2.79085        2.13187       -0.52135
O         -2.60941       -2.81128       -0.55522
H         -3.54324       -3.02692       -0.71577
H         -2.93406       -0.93459       -1.37575
H         -3.59616        0.74329        1.90660
