26
id_2266_cb.log	Energy: -419713.0572759
C          4.18650       -0.68020       -0.27961
H          4.90382       -0.02579       -0.77102
H          4.44240       -0.80606        0.77412
H          4.15755       -1.65365       -0.77244
O          2.91730       -0.02459       -0.40663
C          1.88253       -0.65892        0.15659
O          1.99886       -1.74040        0.70144
C          0.61579        0.12248        0.05925
C          0.70775        1.49413        0.06853
H          1.68275        1.97006        0.10957
C         -0.44937        2.31845        0.05230
C         -1.68742        1.71242        0.01576
H         -2.58819        2.32167        0.00179
C         -1.81582        0.30236       -0.01042
C         -0.65861       -0.53237        0.01134
C         -0.83476       -1.94187       -0.05741
H          0.03462       -2.58672       -0.06551
C         -2.09188       -2.49105       -0.12086
H         -2.20655       -3.56904       -0.17537
C         -3.24009       -1.66350       -0.11995
H         -4.22782       -2.11165       -0.16652
C         -3.10295       -0.30073       -0.07017
H         -3.97545        0.34697       -0.08088
N         -0.29867        3.69776        0.14496
H         -1.09749        4.21903       -0.20065
H          0.56575        4.04356       -0.25844
