56
id_2113_ca.log	Energy: -1567807.0682217
C          1.51741        1.51598        2.01768
H          1.07256        1.36425        2.99645
C          2.61411        0.76335        1.61529
H          3.04125        0.01706        2.27912
C          3.17684        0.96181        0.35532
C          2.64785        1.93387       -0.49429
C          1.55635        2.70053       -0.09298
H          1.16071        3.47160       -0.74597
C          0.98604        2.47778        1.15756
O         -0.07243        3.25845        1.58142
C         -1.40194        2.83240        1.20666
H         -2.05210        3.46176        1.82230
C         -1.69323        3.09604       -0.26605
H         -0.99355        2.53514       -0.89804
H         -1.58044        4.16003       -0.49456
C         -3.11283        2.67140       -0.61268
H         -3.86368        3.20013       -0.01727
H         -3.32221        2.81864       -1.67331
N         -3.29154        1.20643       -0.32343
H         -2.56332        0.71483       -0.87626
C         -3.04726        0.93561        1.13490
H         -3.81936        1.49004        1.67817
H         -3.19725       -0.12990        1.30533
C         -1.64380        1.36645        1.53291
H         -0.91271        0.75260        0.99404
H         -1.51498        1.17476        2.60331
C         -4.63159        0.73550       -0.79005
H         -5.37859        1.25814       -0.18475
H         -4.72695        1.06563       -1.82734
C         -4.88911       -0.77147       -0.74427
C         -3.84061       -1.66027       -1.42307
H         -3.48975       -1.19237       -2.34576
H         -4.31966       -2.60689       -1.68009
N         -2.68815       -1.98668       -0.59145
H         -2.80196       -2.73679        0.08301
C         -1.48784       -1.40231       -0.69855
O         -1.25559       -0.48052       -1.50174
C         -0.43401       -1.85929        0.25540
C         -0.74170       -1.98360        1.58225
H         -1.74185       -1.83492        1.97702
N          0.21016       -2.27508        2.49836
C          1.54736       -2.47464        2.21111
O          2.35685       -2.71871        3.11714
C          1.87942       -2.37420        0.80846
H          2.91267       -2.56144        0.53870
C          0.93452       -2.05636       -0.11734
C          1.37166       -1.94280       -1.56254
F          0.47507       -2.48820       -2.40072
F          2.53678       -2.57379       -1.77775
F          1.55476       -0.66585       -1.93454
O         -5.08609       -1.27959        0.56648
H         -5.87179       -0.85614        0.94961
Cl         3.33245        2.22148       -2.06555
Cl         4.53403       -0.01118       -0.12637
H         -5.81004       -0.89402       -1.32863
H         -0.05796       -2.34093        3.47967
