13
id_2314_ca.log	Energy: -1806320.0351502
C         -2.86183       -0.23996       -0.00001
H         -3.94742       -0.23411       -0.00004
C         -2.16642       -1.45081       -0.00001
H         -2.70015       -2.39546       -0.00005
C         -0.77532       -1.44758        0.00002
H         -0.22161       -2.38108        0.00001
C         -0.08604       -0.23821        0.00006
C         -0.77582        0.97640        0.00002
C         -2.17193        0.96617       -0.00000
H         -2.69482        1.91777       -0.00002
O         -0.15883        2.19638       -0.00002
H          0.80932        2.09554        0.00011
Br         1.80142       -0.22771       -0.00001
