17
id_2075_cb.log	Energy: -1210751.0010149
C          1.49961        1.45339        0.16347
H          2.15906        2.28001        0.40897
C          0.15957        1.67098       -0.07709
C         -0.66251        0.57130       -0.38935
N         -0.17958       -0.65808       -0.46169
C          1.10733       -0.86588       -0.23114
C          1.99857        0.15108        0.08667
Cl         3.67715       -0.14476        0.38556
Cl         1.64729       -2.51320       -0.34940
O         -1.95669        0.80805       -0.63430
C         -2.81060       -0.32114       -0.82102
H         -3.76294        0.10111       -1.14805
H         -2.41899       -0.97112       -1.60609
C         -3.04158       -1.12267        0.46622
O         -2.63766       -0.64377        1.55437
O         -3.66484       -2.20648        0.30387
Cl        -0.50967        3.26453       -0.00093
