66
id_2109_ca.log	Energy: -1421606.4191340
C         -6.85997        3.74587        1.11213
H         -6.74829        4.78728        1.39742
C         -7.07470        2.77262        2.08830
H         -7.13254        3.05479        3.13499
C         -7.22031        1.43754        1.72295
H         -7.39303        0.68099        2.48506
C         -7.15643        1.05749        0.37707
C         -6.93495        2.03867       -0.59342
H         -6.88506        1.75082       -1.64086
C         -6.79000        3.37702       -0.22874
H         -6.62482        4.12900       -0.99405
C         -7.28281       -0.39758       -0.01147
H         -7.38610       -0.50528       -1.09421
H         -8.17377       -0.84181        0.44490
C         -6.09696       -1.22693        0.48903
C         -6.18759       -2.66420       -0.01380
O         -6.55067       -2.95795       -1.12985
O         -5.83291       -3.54414        0.91841
H         -5.90544       -4.44610        0.54538
N         -4.77982       -0.62504        0.06939
H         -4.83432        0.36197        0.37028
C         -3.60609       -1.23080        0.79614
H         -3.86200       -1.24733        1.85681
H         -3.50824       -2.25644        0.42956
C         -2.35241       -0.41656        0.52410
H         -1.52556       -0.89831        1.05340
H         -2.47190        0.58956        0.94866
C         -2.05822       -0.31244       -0.97270
H         -1.87808       -1.32440       -1.35983
C         -3.29050        0.23747       -1.69624
H         -3.48274        1.27193       -1.37903
H         -3.13211        0.25049       -2.77911
C         -4.52498       -0.60328       -1.41705
H         -5.41019       -0.19256       -1.90345
H         -4.38734       -1.64081       -1.72949
C         -0.85283        0.57630       -1.26955
H         -1.11826        1.61297       -1.02539
H         -0.65526        0.54364       -2.35845
N          0.35666        0.24564       -0.51629
C          1.40463        1.20424       -0.87681
H          1.04165        2.21325       -0.65883
H          1.61021        1.16042       -1.96388
C          2.69704        0.94321       -0.11093
H          3.44690        1.68809       -0.39482
H          2.51866        1.03562        0.96663
C          3.18246       -0.47173       -0.39627
H          3.45723       -0.57789       -1.45394
C          2.08283       -1.46646       -0.06855
H          2.40134       -2.47979       -0.33115
H          1.89165       -1.43741        1.01062
C          0.80693       -1.11356       -0.82634
H          0.02482       -1.82353       -0.54585
H          0.97866       -1.22558       -1.91457
O          4.30831       -0.81831        0.42241
C          5.53545       -0.32238        0.11535
C          5.83629        0.43714       -1.01821
H          5.07639        0.70404       -1.74182
C          7.14314        0.86520       -1.22784
H          7.38044        1.45496       -2.10683
C          8.15382        0.55166       -0.32787
C          7.84428       -0.20632        0.80416
C          6.54726       -0.64023        1.02672
H          6.30625       -1.22989        1.90428
Cl         9.07090       -0.62636        1.96400
Cl         9.77303        1.11204       -0.62949
H         -6.07385       -1.23210        1.58072
