26
id_2260_cb.log	Energy: -279013.4769047
C         -3.75839        1.53122       -0.25556
H         -4.70876        1.67077       -0.77875
H         -3.06123        2.29544       -0.61550
H         -3.93200        1.71352        0.81054
C         -3.19877        0.13085       -0.48365
H         -3.04282       -0.03613       -1.55750
H         -3.91922       -0.62333       -0.14713
C         -1.87933       -0.07713        0.24528
H         -2.03385        0.03417        1.32668
H         -1.17687        0.71930       -0.05179
N         -1.34364       -1.41830        0.00635
H         -1.14788       -1.48952       -0.99403
C         -0.07802       -1.64502        0.71573
H         -0.27924       -1.57489        1.79022
H          0.23833       -2.67227        0.50834
C          1.04194       -0.69299        0.35049
C          1.68646       -0.81519       -0.88523
H          1.40027       -1.62242       -1.55680
C          2.68851        0.07701       -1.25743
H          3.18423       -0.03447       -2.21723
C          3.05924        1.10970       -0.39547
H          3.84187        1.80498       -0.68332
C          2.42227        1.24291        0.83634
H          2.70479        2.04531        1.51135
C          1.41897        0.34629        1.20375
H          0.92063        0.45183        2.16492
