46
id_20_ca.log	Energy: -532170.0041392
C          3.71212       -2.32866        1.50801
H          3.49844       -1.55338        2.24472
H          4.74213       -2.67065        1.60216
H          3.02081       -3.16327        1.61876
N          3.53158       -1.73462        0.15363
C          4.48226       -0.60659       -0.05813
H          5.48529       -0.95393        0.18740
H          4.18739        0.20932        0.60352
H          4.44143       -0.29211       -1.09935
C          2.10185       -1.32532       -0.05656
H          1.49760       -2.21377        0.14545
H          1.88795       -0.57126        0.70564
C          1.84789       -0.80362       -1.46288
H          2.31967       -1.46456       -2.19962
H          2.28549        0.19062       -1.58402
C          0.34569       -0.78127       -1.75034
H         -0.01040       -1.81406       -1.79349
H          0.16320       -0.34007       -2.73994
N         -0.41031       -0.13619       -0.67631
C         -0.14475        1.23003       -0.38009
C          0.44451        2.03756       -1.36928
H          0.65317        1.61622       -2.34619
C          0.75552        3.37137       -1.13864
H          1.21208        3.95835       -1.92969
C          0.46633        3.94413        0.09595
H          0.69917        4.98497        0.29651
C         -0.12576        3.15535        1.07391
H         -0.35221        3.58973        2.04540
C         -0.43610        1.80410        0.87786
C         -1.06420        1.10115        2.07082
H         -0.45679        1.33869        2.95166
H         -2.04894        1.55031        2.25414
C         -1.24350       -0.41467        1.98419
H         -1.64758       -0.77243        2.93582
H         -0.26864       -0.89399        1.83353
C         -2.16904       -0.79598        0.86576
C         -1.72772       -0.63148       -0.45485
C         -2.55289       -0.99845       -1.52116
H         -2.20046       -0.87505       -2.54118
C         -3.82392       -1.51421       -1.27766
H         -4.45832       -1.79544       -2.11261
C         -4.28009       -1.65575        0.03084
H         -5.27149       -2.05294        0.22511
C         -3.45214       -1.29395        1.09207
H         -3.79411       -1.41788        2.11662
H          3.74966       -2.46028       -0.54051
