21
id_2154_ca.log	Energy: -370499.5020018
C         -4.34112        0.45146        0.16482
H         -4.25066        1.18551       -0.64190
H         -5.33047       -0.00384        0.13966
H         -4.18110        0.93667        1.13272
O         -3.41780       -0.61887       -0.02118
C         -2.09190       -0.31781       -0.02869
C         -1.22088       -1.39915       -0.21978
H         -1.63732       -2.39172       -0.36153
C          0.14900       -1.19313       -0.23684
H          0.79966       -2.04515       -0.41346
C          0.67273        0.09796       -0.07041
C         -0.20476        1.16928        0.10516
H          0.19495        2.17132        0.22993
C         -1.58310        0.97508        0.13376
H         -2.23948        1.82471        0.28125
C          2.13185        0.39309       -0.09865
O          2.58220        1.48489       -0.46395
N          2.94020       -0.58806        0.36565
H          2.62738       -1.53829        0.53192
O          4.29550       -0.48908        0.12483
H          4.68548       -0.09901        0.92809
