16
id_2152_ca.log	Energy: -505910.9970864
C          1.14004        2.13641        0.00000
H          0.53075        3.04295        0.00000
H          1.78921        2.15450       -0.88195
H          1.78921        2.15450        0.88195
C          0.26344        0.91518        0.00000
C         -1.12932        1.03919        0.00001
H         -1.57655        2.03089       -0.00000
C         -1.95250       -0.08599        0.00000
C         -1.40179       -1.36667        0.00000
H         -2.05174       -2.23611       -0.00000
C         -0.01860       -1.50960        0.00000
H          0.42666       -2.49964       -0.00000
C          0.79322       -0.37931        0.00000
Cl         2.53458       -0.59908       -0.00000
O         -3.32157        0.01197       -0.00000
H         -3.58980        0.94631       -0.00006
