31
id_2171_ca.log	Energy: -351154.7861988
C         -3.14882       -1.34755       -0.65877
H         -2.69119       -2.21131       -0.17420
H         -2.75182       -1.21517       -1.66448
H         -4.23250       -1.46481       -0.70176
N         -2.84592       -0.13213        0.15537
C         -3.40387        1.07497       -0.52541
H         -4.48972        0.97458       -0.55095
H         -3.01482        1.12937       -1.54126
H         -3.11588        1.95846        0.04641
C         -3.49956       -0.27329        1.49371
H         -4.57362       -0.38405        1.34178
H         -3.28810        0.62279        2.07892
H         -3.09190       -1.15663        1.98644
C         -1.35924        0.01122        0.38600
H         -1.24291        0.87820        1.04212
H         -1.05191       -0.88781        0.92827
C         -0.52114        0.18450       -0.87763
H         -0.63095       -0.68335       -1.53415
H         -0.83367        1.07772       -1.42587
C          0.92757        0.33074       -0.46800
C          1.45322        1.59069       -0.15932
H          0.82385        2.47275       -0.24777
C          2.77891        1.71046        0.25460
H          3.18759        2.68916        0.48942
C          3.59417        0.58491        0.36749
H          4.63008        0.67094        0.68553
C          3.06378       -0.66832        0.06097
C          1.73820       -0.79932       -0.35319
H          1.34883       -1.78745       -0.58779
O          3.81113       -1.81840        0.14688
H          4.71180       -1.60531        0.44398
