30
id_2329_cb.log	Energy: -564216.5298511
C         -3.93896       -1.23452       -0.34237
H         -4.88656       -0.75221       -0.08811
H         -3.87639       -2.18581        0.19247
H         -3.92558       -1.43071       -1.41786
C         -2.79258       -0.33144        0.04492
H         -2.78023       -0.14391        1.12328
H         -2.83639        0.62600       -0.48259
O         -1.55872       -0.99706       -0.33001
P         -0.17746       -0.36343        0.19268
O          0.02209       -0.43027        1.67181
C          1.01054       -1.22598       -0.88860
H          0.76277       -2.29140       -0.84549
H          0.77955       -0.87755       -1.90228
N          2.42646       -1.04341       -0.61427
C          2.80214        0.36586       -0.55093
H          2.39982        0.87986        0.33952
H          2.44812        0.88777       -1.44409
H          3.89204        0.44355       -0.51117
C          2.84916       -1.73087        0.60381
H          2.43050       -1.28715        1.51855
H          3.93965       -1.68730        0.67417
H          2.54901       -2.78102        0.55670
O         -0.21075        1.14606       -0.36466
C         -0.22402        2.27111        0.54516
H         -1.21738        2.33843        0.99900
H          0.51184        2.09970        1.33544
C          0.10833        3.50522       -0.25953
H          0.09630        4.38286        0.39244
H         -0.62282        3.65462       -1.05862
H          1.10390        3.41351       -0.70364
