19
id_2388_cb.log	Energy: -333337.1851543
C         -3.25472       -1.07977        0.00036
H         -3.85709       -0.83619       -0.88112
H         -3.85611       -0.83450        0.88206
H         -3.07050       -2.15688        0.00126
C         -1.96112       -0.31181       -0.00085
C         -1.96324        1.10392        0.00158
H         -2.91491        1.62973        0.00526
C         -0.80198        1.83369        0.00136
H         -0.83232        2.91916        0.00332
C          0.47639        1.21228       -0.00172
C          0.46514       -0.20324       -0.00399
C         -0.73842       -0.93890       -0.00254
H         -0.67537       -2.02069       -0.00278
N          1.68257       -0.95433        0.00013
O          1.63097       -2.18185        0.01120
O          2.76167       -0.35610       -0.01033
N          1.57487        1.99941       -0.03409
H          2.48704        1.60118        0.12889
H          1.44379        2.98921        0.12860
