12
id_2315_cb.log	Energy: -1806029.5304008
C          2.37597        0.13781        0.00000
H          3.34487        0.63230        0.00000
C          2.32018       -1.24980        0.00000
H          3.23463       -1.83813        0.00000
C          1.07342       -1.93905        0.00000
C         -0.10020       -1.12856        0.00000
H         -1.07027       -1.61701        0.00000
C          0.00000        0.25311        0.00000
C          1.21923        0.92560        0.00000
H          1.26935        2.00847        0.00000
Br        -1.60235        1.27841        0.00000
O          0.99650       -3.24058        0.00000
