31
id_273_ca.log	Energy: -374920.5622297
C         -2.63974       -1.45417        0.07187
H         -3.16704       -2.37321        0.30815
C         -1.80709       -1.39366       -1.04434
H         -1.68278       -2.26485       -1.68022
C         -1.12060       -0.21809       -1.34059
H         -0.45569       -0.17427       -2.19867
C         -1.26123        0.90272       -0.52225
C         -2.11836        0.84641        0.58032
H         -2.25002        1.72410        1.21057
C         -2.79826       -0.33034        0.88182
H         -3.45479       -0.36826        1.74541
C         -0.49114        2.16530       -0.81171
H         -1.16169        3.02072       -0.91341
H          0.11306        2.07798       -1.71656
N          0.45333        2.52365        0.31063
H          0.00872        2.30509        1.21170
C          1.81394        1.87964        0.25982
H          2.29015        2.24714       -0.64998
H          2.35183        2.26703        1.12781
C          1.73039        0.37850        0.27049
C          2.19329       -0.35192       -0.82241
H          2.62966        0.17057       -1.66969
C          2.08538       -1.74254       -0.83437
H          2.44779       -2.30500       -1.68914
C          1.50024       -2.40370        0.24188
H          1.40329       -3.48491        0.22867
C          1.03988       -1.67589        1.34178
H          0.58726       -2.18951        2.18421
C          1.16680       -0.29141        1.36160
H          0.81010        0.27628        2.21907
H          0.59581        3.54044        0.30415
