26
id_2216_ca.log	Energy: -208356.3838977
C          0.00001        2.25278        0.03935
H          0.00002        3.12068        0.70394
H         -0.88643        2.32035       -0.59921
H          0.88646        2.32034       -0.59921
C          0.00000        0.96920        0.86264
H         -0.87773        0.94989        1.51921
H          0.87773        0.94988        1.51922
C         -0.00000       -0.29872        0.00385
C          1.25197       -0.44722       -0.87169
H          1.21895       -1.44051       -1.33702
H          1.15752        0.27667       -1.68744
C          2.59065       -0.24179       -0.16753
H          3.40627       -0.43942       -0.86824
H          2.72771       -0.91660        0.68484
H          2.70316        0.78519        0.19212
C         -1.25197       -0.44721       -0.87170
H         -1.15752        0.27668       -1.68744
H         -1.21896       -1.44050       -1.33703
C         -2.59065       -0.24178       -0.16753
H         -2.70316        0.78520        0.19212
H         -2.72772       -0.91660        0.68483
H         -3.40628       -0.43940       -0.86824
N         -0.00001       -1.46098        0.98023
H         -0.82633       -1.43823        1.58980
H          0.82631       -1.43823        1.58980
H         -0.00001       -2.36014        0.48198
