8
id_2410_cb.log	Energy: -354067.7362056
C         -0.00000        0.42691       -0.00000
C         -1.11009       -0.30426        0.00000
F         -2.31955        0.22613        0.00000
F         -1.17372       -1.61583        0.00000
C          1.42530       -0.06173       -0.00000
O          2.30071        0.83645       -0.00000
O          1.59558       -1.30524       -0.00000
F         -0.18024        1.76580       -0.00000
