22
id_2234_cb.log	Energy: -324069.7500818
C         -3.24199       -1.34410        0.00762
H         -4.32706       -1.24096        0.01053
H         -2.92328       -1.88786        0.90309
H         -2.92889       -1.89522       -0.88532
O         -2.72296       -0.02212        0.00051
C         -1.36336        0.11653       -0.00358
C         -0.89775        1.43549       -0.00628
H         -1.61096        2.25375       -0.00566
C          0.47356        1.68177       -0.00949
C          1.38365        0.60749       -0.00568
H          2.44681        0.81753       -0.00651
C          0.89222       -0.69142       -0.00169
C         -0.48439       -0.96072       -0.00184
H         -0.81548       -1.99116        0.00239
O          1.69139       -1.80019        0.00498
C          3.09638       -1.59264        0.00204
H          3.41540       -1.04276        0.89366
H          3.41265       -1.05015       -0.89509
H          3.54647       -2.58533        0.00552
N          0.95601        2.98681       -0.08035
H          1.88166        3.10032        0.31856
H          0.31330        3.67820        0.29083
