31
id_2052_cb.log	Energy: -351474.4393617
C          1.43765        1.27461       -0.14083
H          1.04904        2.28620       -0.23561
C          2.81336        1.06792       -0.17164
H          3.49198        1.90877       -0.29146
C          3.34120       -0.22362       -0.04394
C          2.45094       -1.29565        0.11683
H          2.84687       -2.30247        0.22396
C          1.07941       -1.07383        0.14509
H          0.40427       -1.91743        0.27591
C          0.54420        0.21280        0.01991
C         -0.94128        0.42608       -0.00080
C         -1.57620        0.18876       -1.36868
H         -1.28386        1.00028       -2.04757
H         -1.15050       -0.73586       -1.78174
C         -3.09684        0.03121       -1.32305
H         -3.57979        0.98686       -1.07920
H         -3.45654       -0.25978       -2.31562
C         -3.47888       -1.01876       -0.28198
H         -2.92994       -1.94456       -0.50270
H         -4.54646       -1.25607       -0.33973
C         -3.13207       -0.54368        1.13151
H         -3.21860       -1.38132        1.83090
H         -3.87274        0.20253        1.44682
C         -1.73174        0.05541        1.23684
C         -1.50463        1.50381        0.87924
H         -0.81014        2.08053        1.48321
H         -2.36455        2.06269        0.51726
N          4.71824       -0.44659       -0.13574
H          5.02133       -1.27915        0.35917
H          5.27139        0.35478        0.15027
H         -1.13018       -0.31020        2.06537
