19
id_2417_ca.log	Energy: -242181.9417805
C          3.14466        0.00834        0.81149
H          2.87131       -0.85620        1.42649
H          2.88330        0.91527        1.36788
H          4.23027       -0.00356        0.66863
C          2.41270       -0.03136       -0.53395
H          2.70595       -0.93480       -1.08051
H          2.72089        0.82844       -1.13970
C          0.91327       -0.01348       -0.35870
C          0.21455        1.19536       -0.25207
H          0.75699        2.13451       -0.34162
C         -1.16132        1.22406       -0.03665
H         -1.69790        2.16543        0.04157
C         -1.86229        0.02383        0.07765
C         -1.19238       -1.19414       -0.02646
H         -1.74774       -2.12524        0.05729
C          0.18579       -1.20197       -0.24183
H          0.70336       -2.15571       -0.32316
O         -3.22106        0.09613        0.29037
H         -3.58778       -0.80095        0.36332
