27
id_2226_ca.log	Energy: -1892738.7671530
C         -1.34149        2.66014       -0.17012
H         -0.58901        3.44916       -0.13181
H         -2.03047        2.81524        0.66740
H         -1.90292        2.78613       -1.10364
C         -0.67169        1.31033       -0.10391
C          0.71982        1.24201       -0.07899
H          1.30152        2.15672       -0.11031
C          1.34311        0.00602       -0.01275
C          0.61303       -1.16994        0.03706
H          1.12076       -2.12655        0.09737
C         -0.78518       -1.14518        0.01321
C         -1.39868        0.11141       -0.06828
N         -2.87317        0.26120       -0.08033
C         -3.63010       -0.60518       -1.04527
H         -3.04961       -0.69489       -1.96253
H         -4.57765       -0.10357       -1.24032
H         -3.81385       -1.57701       -0.59576
C         -3.46305        0.20160        1.29884
H         -4.52685        0.42390        1.21435
H         -2.96043        0.94673        1.91488
H         -3.31205       -0.79710        1.70430
C         -1.50171       -2.47296        0.06047
H         -2.32461       -2.48697        0.77874
H         -0.79336       -3.25021        0.35304
H         -1.90235       -2.74097       -0.92155
Br         3.23481       -0.07647        0.02068
H         -3.04974        1.21799       -0.40740
