14
id_2405_cb.log	Energy: -239919.0306431
C          0.74716        0.73652        0.04753
H          0.46676        1.58520        0.68174
H          0.70371        1.08670       -0.99137
C         -0.23484       -0.41015        0.25642
H         -0.17598       -0.77203        1.29211
H          0.02357       -1.26575       -0.37789
C         -1.70186       -0.07121       -0.01695
O         -2.01649        1.11802       -0.30333
O         -2.53040       -1.02748        0.06934
C          2.17699        0.35793        0.38179
H          2.24350       -0.00218        1.41722
H          2.83181        1.23155        0.27853
O          2.60385       -0.67181       -0.51592
H          3.52627       -0.89182       -0.31389
