39
id_2330_cb.log	Energy: -638190.3776392
C         -2.33544        2.31568        0.41768
H         -1.58567        2.39180        1.21142
H         -3.04783        3.13501        0.55507
H         -1.83022        2.45735       -0.54334
C         -3.06426        0.97857        0.44022
H         -3.78568        0.96094       -0.38115
H         -3.64703        0.87311        1.37266
N         -2.15523       -0.16195        0.27600
C         -2.86892       -1.34515       -0.21810
H         -2.23705       -2.22121       -0.04301
H         -3.79662       -1.50454        0.36032
C         -3.17490       -1.27243       -1.70748
H         -3.81788       -0.42401       -1.95943
H         -3.68772       -2.18404       -2.02861
H         -2.24548       -1.17987       -2.27755
C         -1.48815       -0.45054        1.54486
H         -1.17926        0.49730        1.99149
H         -2.17427       -0.93562        2.26078
C         -0.24234       -1.32292        1.38289
H         -0.48321       -2.37053        1.17708
H          0.34843       -1.30258        2.30353
P          0.80717       -0.76217        0.03542
O          0.45634       -1.16141       -1.36214
O          2.23735       -1.33616        0.50505
C          3.40891       -1.08129       -0.30905
H          3.99450       -2.00176       -0.27640
H          3.10222       -0.90902       -1.34557
C          4.19148        0.08766        0.24990
H          5.10299        0.23286       -0.33709
H          4.47445       -0.10667        1.28808
H          3.60514        1.01077        0.21425
O          0.89751        0.83231        0.23498
C          1.09258        1.68890       -0.91700
H          1.96482        1.34234       -1.48110
H          0.21067        1.61560       -1.55947
C          1.29913        3.09504       -0.40667
H          0.43189        3.42855        0.17030
H          1.43683        3.77422       -1.25245
H          2.18688        3.14737        0.23036
