12
id_2312_cb.log	Energy: -254830.8725855
C          0.08362       -1.75008       -0.00000
H          0.12493       -2.83671       -0.00000
C          1.26814       -1.02477       -0.00000
H          2.22581       -1.53993       -0.00000
C          1.27580        0.40288        0.00000
C          0.00000        1.03774        0.00000
H         -0.07126        2.12195        0.00000
C         -1.14796        0.26907        0.00000
C         -1.16661       -1.11793       -0.00000
H         -2.10275       -1.66493       -0.00000
F         -2.34763        0.92368        0.00000
O          2.38425        1.08813        0.00000
