20
id_2056_ca.log	Energy: -416920.6929556
C         -0.14753        1.38558       -0.20718
H         -0.63168        2.35420       -0.12384
C          1.21579        1.27687        0.04497
H          1.80479        2.14291        0.32315
C          1.80556        0.02331       -0.07010
C          1.08933       -1.11588       -0.42699
H          1.58345       -2.07679       -0.50916
C         -0.26996       -0.98266       -0.67627
H         -0.85123       -1.85634       -0.95842
C         -0.89903        0.26359       -0.56785
C         -2.37566        0.38569       -0.82341
H         -2.66974       -0.18180       -1.71413
H         -2.66541        1.42732       -0.99582
C         -3.20915       -0.13237        0.32359
O         -2.78099       -0.62374        1.34911
O         -4.51937        0.01098        0.08181
H         -5.02655       -0.33616        0.84181
N          3.23825       -0.10370        0.19270
O          3.75122       -1.20985        0.09870
O          3.86570        0.90109        0.49625
