19
id_230_ca.log	Energy: -205463.4878517
C          2.39305        0.00000       -0.05909
H          2.85411       -0.89607        0.35540
H          2.85411        0.89607        0.35540
H          2.46415        0.00000       -1.14711
N          0.95169        0.00000        0.30767
C          0.25136       -1.22823       -0.19215
H          0.38050       -1.23678       -1.27702
H          0.74339       -2.09579        0.25026
C         -1.21627       -1.16492        0.18882
H         -1.32447       -1.18640        1.28281
H         -1.73290       -2.02774       -0.23430
O         -1.82873        0.00000       -0.33762
C         -1.21627        1.16492        0.18882
H         -1.73290        2.02774       -0.23430
H         -1.32447        1.18640        1.28281
C          0.25136        1.22823       -0.19215
H          0.74339        2.09579        0.25026
H          0.38050        1.23678       -1.27702
H          0.88322        0.00000        1.33454
