27
id_207_ca.log	Energy: -232266.5573956
C          2.70818       -1.08386       -0.05593
H          2.82796       -1.12674       -1.14475
H          3.58964       -0.58746        0.36245
H          2.68213       -2.11067        0.32269
C          1.43355       -0.33218        0.31128
C          1.47797        1.10688       -0.20775
H          2.31086        1.65597        0.24226
H          1.64050        1.09614       -1.29453
C          0.19393        1.85796        0.09517
H          0.17589        2.84953       -0.35825
H          0.01781        1.95919        1.16723
N         -0.97034        1.10562       -0.47790
H         -0.86818        1.08706       -1.50154
C         -1.12369       -0.33080        0.00238
C          0.20552       -1.04265       -0.26764
H          0.12235       -2.05847        0.13465
H          0.33376       -1.13419       -1.35607
C         -1.50277       -0.30820        1.47854
H         -0.71112        0.08821        2.11766
H         -2.40989        0.28574        1.63185
H         -1.70834       -1.33463        1.79421
C         -2.24849       -0.93806       -0.82555
H         -2.01559       -0.89280       -1.89438
H         -3.19324       -0.41548       -0.64342
H         -2.37276       -1.98671       -0.54269
H          1.34726       -0.30153        1.40521
H         -1.84185        1.61300       -0.28024
