33
id_2170_ca.log	Energy: -539154.1728888
C         -1.49411        1.82342        1.61100
H         -2.46634        1.39035        1.36899
H         -0.79047        1.04594        1.90507
H         -1.59080        2.56408        2.40437
N         -0.98222        2.50815        0.39092
C         -1.83945        3.67136        0.03168
H         -2.84034        3.29750       -0.18764
H         -1.41331        4.16120       -0.84317
H         -1.86467        4.35608        0.87853
C         -0.86907        1.56136       -0.77767
H         -0.52536        2.16453       -1.62131
H         -1.87332        1.19770       -0.97763
C          0.10684        0.45580       -0.48446
C         -0.22062       -0.89573       -0.27571
C          0.77437       -1.82756        0.03489
H          0.52425       -2.87155        0.18755
C          2.09987       -1.42839        0.14054
C          2.44184       -0.08961       -0.04881
C          1.44483        0.83441       -0.35068
O          1.75804        2.15490       -0.49861
H          2.70747        2.28014       -0.31809
O          3.71759        0.37171        0.05371
H          4.30607       -0.36474        0.29798
O          3.13727       -2.26290        0.42989
H          2.80527       -3.16514        0.57415
C         -1.62484       -1.38423       -0.38706
O         -2.50651       -0.86193       -1.04362
O         -1.82680       -2.49965        0.32061
C         -3.14198       -3.06379        0.22148
H         -3.12235       -3.95936        0.83925
H         -3.36521       -3.31834       -0.81619
H         -3.88262       -2.35574        0.59749
H         -0.03558        2.86102        0.58717
