8
id_2400_ca.log	Energy: -556589.2902134
C          1.14333       -0.03483       -0.15529
O          1.74953        0.60446       -0.97482
C         -0.30282        0.32439        0.23953
F         -0.47749        0.20476        1.56283
F         -0.55517        1.59105       -0.09899
Cl        -1.44650       -0.73900       -0.59450
O          1.54856       -1.10335        0.50010
H          2.45677       -1.34551        0.22431
