25
id_2411_ca.log	Energy: -312535.7029508
C          2.26968       -1.71415       -0.00887
H          2.66742       -2.72398       -0.03195
C          3.11282       -0.65102        0.37949
H          4.14328       -0.86184        0.64837
C          2.65391        0.65516        0.42291
H          3.29967        1.47599        0.71898
C          1.31860        0.87970        0.06817
C          0.45414       -0.17233       -0.32289
C          0.94919       -1.48765       -0.35927
H          0.30485       -2.30989       -0.65995
C         -0.82493        0.42107       -0.61989
C         -0.68526        1.76653       -0.39338
H         -1.41137        2.56068       -0.50481
N          0.59587        2.04681        0.01525
H          0.95291        2.96854        0.22861
C         -2.06968       -0.30209       -1.03638
H         -1.85680       -1.00785       -1.84652
H         -2.81343        0.40953       -1.41196
C         -2.67853       -1.10576        0.10704
H         -1.96609       -1.81791        0.52522
H         -3.58337       -1.63071       -0.19757
N         -3.06330       -0.18258        1.21973
H         -3.80545        0.46042        0.91949
H         -2.25702        0.38810        1.50637
H         -3.40223       -0.69732        2.03936
