22
id_2002_cb.log	Energy: -337506.5861158
C          3.63767       -0.09170        0.03803
H          4.72393       -0.07985        0.04194
C          2.91938        0.92213        0.67587
H          3.44669        1.72389        1.18586
C          1.52584        0.90976        0.66770
H          0.97708        1.69754        1.17532
C          0.81514       -0.11694        0.02500
C          1.55132       -1.12865       -0.61089
H          1.02232       -1.92731       -1.12567
C          2.94655       -1.11888       -0.60434
H          3.49256       -1.91179       -1.10836
C         -0.66981       -0.16425        0.04673
C         -1.30494       -1.37268        0.35993
H         -0.68383       -2.23569        0.59553
C         -2.69312       -1.49995        0.40169
H         -3.15426       -2.44845        0.65987
C         -3.47079       -0.37273        0.11432
H         -4.55652       -0.43867        0.14302
C         -2.86896        0.83618       -0.21044
H         -3.48011        1.70583       -0.44458
C         -1.45385        0.99848       -0.26864
O         -0.92430        2.13873       -0.61658
