29
id_2232_cb.log	Energy: -303669.1083875
C          1.87159        1.10485        1.90466
H          2.19030        2.02018        2.41278
H          2.63449        0.34076        2.08179
H          0.93593        0.76966        2.36516
C          1.67798        1.37671        0.41468
H          2.62984        1.67831       -0.03632
H          0.98688        2.21302        0.28682
N          1.16849        0.23115       -0.35913
C          2.10820       -0.89264       -0.35388
H          3.09955       -0.46026       -0.52759
H          2.16432       -1.39778        0.62225
C          1.81153       -1.90762       -1.44852
H          2.57065       -2.69518       -1.44095
H          1.82358       -1.42616       -2.43087
H          0.83503       -2.38105       -1.31245
C         -0.19248       -0.07810       -0.06425
C         -0.55376       -1.22474        0.65842
H          0.21746       -1.90020        1.01394
C         -1.88648       -1.51971        0.93239
H         -2.13257       -2.41646        1.49332
C         -2.89130       -0.66382        0.49282
H         -3.93455       -0.88251        0.69819
C         -2.54182        0.47292       -0.23098
H         -3.32068        1.13707       -0.59856
C         -1.21222        0.78429       -0.52645
C         -0.91586        2.01121       -1.34964
H          0.00381        1.88901       -1.92672
H         -0.79484        2.90267       -0.72333
H         -1.74092        2.21075       -2.03908
