26
id_2039_ca.log	Energy: -338690.5409638
C          2.19596        1.93514       -0.00001
H          2.83475        1.81661        0.88209
H          1.81059        2.95492       -0.00013
H          2.83489        1.81645       -0.88197
C          1.07324        0.92619       -0.00001
C          1.33566       -0.45279       -0.00000
C          0.26003       -1.34919       -0.00001
C         -1.07324       -0.92619       -0.00001
C         -1.33566        0.45279        0.00000
C         -0.26003        1.34919       -0.00000
O         -0.48619        2.71670       -0.00001
H         -1.43958        2.89521        0.00005
C         -2.74277        0.99875        0.00001
H         -2.93001        1.62088        0.88475
H         -3.48781        0.20300        0.00011
H         -2.93007        1.62073       -0.88482
C         -2.19596       -1.93514       -0.00000
H         -2.83488       -1.81647       -0.88198
H         -2.83476       -1.81660        0.88208
H         -1.81059       -2.95491       -0.00011
O          0.48619       -2.71670       -0.00001
H          1.43958       -2.89521        0.00006
C          2.74277       -0.99876        0.00001
H          2.93005       -1.62081       -0.88476
H          2.93003       -1.62080        0.88480
H          3.48782       -0.20300        0.00002
