30
id_2348_cb.log	Energy: -927626.5009219
C          4.06437        0.18689       -1.91307
H          5.00041       -0.11297       -2.39516
H          4.11046        1.26502       -1.73236
H          3.24214       -0.01025       -2.61222
C          3.85078       -0.59882       -0.61922
H          4.65342       -0.34208        0.08392
C          3.89054       -2.09755       -0.88712
H          4.84177       -2.38290       -1.34571
H          3.08530       -2.38030       -1.57615
H          3.76561       -2.66641        0.03868
N          2.58540       -0.27450        0.05903
H          1.82306       -0.53556       -0.57085
C          2.43633        1.14039        0.39408
H          3.36543        1.47599        0.86819
H          2.24323        1.79179       -0.46914
C          1.29953        1.28244        1.41484
C         -0.04632        1.00142        0.76507
C         -0.59816        1.92625       -0.12588
H         -0.07959        2.86007       -0.32623
C         -1.80827        1.67070       -0.75482
H         -2.23973        2.39088       -1.44173
C         -2.48497        0.47895       -0.50145
C         -1.93993       -0.44795        0.38479
C         -0.72586       -0.18624        1.01527
H         -0.31918       -0.91078        1.71246
Cl        -2.75556       -1.94626        0.73090
Cl        -4.00307        0.18359       -1.29783
O          1.55307        0.42052        2.50795
H          1.96065       -0.36756        2.09604
H          1.29308        2.30898        1.79631
