29
id_2391_cb.log	Energy: -478263.6455166
C         -2.69197        0.33629        1.28944
H         -2.45580        0.55267        2.32888
C         -3.72591       -0.54781        0.99600
H         -4.28840       -1.01799        1.79854
C         -4.05681       -0.83892       -0.33372
C         -3.32449       -0.21579       -1.35577
H         -3.57434       -0.42801       -2.39222
C         -2.29398        0.66335       -1.04919
H         -1.73807        1.13544       -1.85683
C         -1.95977        0.95799        0.27645
C         -0.80540        1.88684        0.59237
H         -0.88313        2.22057        1.63242
H         -0.84787        2.77378       -0.04751
C          0.52437        1.19531        0.39074
C          1.33130        1.49621       -0.71053
H          1.01495        2.26059       -1.41393
C          2.53556        0.83368       -0.91568
H          3.16658        1.06261       -1.76580
C          2.91686       -0.13542        0.00349
C          2.14081       -0.46320        1.11200
H          2.47301       -1.22362        1.80809
C          0.94220        0.20843        1.29370
H          0.31680       -0.03332        2.14877
N          4.18046       -0.83522       -0.19895
O          4.51208       -1.68227        0.61720
O          4.85556       -0.54649       -1.17591
N         -5.04949       -1.77298       -0.63684
H         -5.48166       -1.62071       -1.54218
H         -5.75666       -1.85632        0.08607
