41
id_2069_ca.log	Energy: -987758.6829364
C          5.60081       -2.57158        1.17562
H          5.18380       -3.41319        0.61352
H          5.37797       -2.73781        2.23465
H          6.68361       -2.55245        1.03886
C          4.97535       -1.29103        0.71890
C          5.73451       -0.23456        0.21760
H          6.81319       -0.31140        0.13702
C          5.06643        0.92300       -0.16790
N          3.72890        1.02365       -0.06417
C          3.10233       -0.04467        0.40723
N          3.64175       -1.19618        0.81003
N          1.70809       -0.01257        0.55862
H          1.33520       -0.80617        1.07325
C          0.82020        0.86229        0.00205
O          1.07209        1.75446       -0.79021
N         -0.49247        0.65977        0.47068
H         -0.70922       -0.26382        0.85485
S         -1.74343        1.24039       -0.50515
O         -1.74700        2.69423       -0.39547
O         -1.67512        0.65063       -1.84182
C         -3.17216        0.59083        0.33948
C         -3.86607        1.46917        1.16403
H         -3.49049        2.47322        1.33157
C         -5.05924        1.04793        1.75137
H         -5.60254        1.72601        2.40105
C         -5.55595       -0.22487        1.48756
H         -6.49084       -0.54755        1.93429
C         -4.85911       -1.09438        0.64732
H         -5.23983       -2.09037        0.44219
C         -3.65240       -0.70102        0.07648
C         -2.91739       -1.69607       -0.76653
O         -3.42677       -2.33164       -1.66547
O         -1.65379       -1.82633       -0.37650
C         -0.80259       -2.64224       -1.20181
H         -0.78573       -2.23886       -2.21636
H          0.18376       -2.58348       -0.74519
H         -1.16521       -3.67132       -1.20431
C          5.79275        2.11490       -0.70809
H          5.44693        2.33259       -1.72395
H          5.57946        2.99385       -0.09139
H          6.87089        1.94484       -0.72790
