28
id_2175_ca.log	Energy: -386511.1589339
C         -0.30682        1.49739       -0.18839
H          0.06507        2.51358       -0.29274
C         -1.68013        1.27165       -0.12967
H         -2.36947        2.10778       -0.18721
C         -2.16384       -0.03277        0.00145
C         -1.26348       -1.10378        0.07351
H         -1.64224       -2.11639        0.17455
C          0.10222       -0.86728        0.01473
H          0.79417       -1.70535        0.07017
C          0.60389        0.43776       -0.11728
C          2.09130        0.68469       -0.16173
H          2.24646        1.74853       -0.37037
C          2.85300       -0.15566       -1.23571
H          2.18393       -0.83293       -1.77540
H          3.29374        0.51957       -1.97620
C          3.95799       -0.91487       -0.47806
H          3.58832       -1.89820       -0.16051
H          4.85197       -1.07652       -1.08809
C          4.21282       -0.05231        0.76132
H          4.78933        0.84071        0.48630
H          4.75842       -0.57815        1.55121
C          2.79563        0.34577        1.17671
H          2.75524        1.18116        1.88264
H          2.30252       -0.51513        1.64653
C         -3.61467       -0.32381        0.06538
O         -4.08785       -1.44290        0.18138
O         -4.38968        0.76793       -0.01726
H         -5.32460        0.49049        0.03256
