43
id_2059_cb.log	Energy: -637378.1829530
C          4.89714       -0.63162       -1.21229
H          5.47435       -0.28465       -0.34299
H          5.06829        0.06958       -2.03349
H          5.28917       -1.60773       -1.51028
N          3.45872       -0.74678       -0.96888
C          3.18320       -1.62995        0.18511
C          3.59086       -0.80787        1.43294
H          2.98179       -1.07147        2.30274
H          4.63487       -0.99607        1.69477
C          3.38350        0.65976        0.98434
H          4.32101        1.21984        1.02145
H          2.66117        1.19394        1.60479
C          2.90228        0.53197       -0.48532
C          1.37278        0.41263       -0.60351
C          0.87929       -0.66836        0.37911
C          1.68367       -1.94899        0.19662
H          1.44704       -2.64069        1.01118
H          1.39984       -2.41921       -0.75054
O         -0.50489       -0.96723        0.12369
C         -1.42114       -0.22662        0.76484
O         -1.13752        0.59745        1.61485
C         -2.80907       -0.50684        0.31505
C         -3.09941       -1.52788       -0.59434
H         -2.30250       -2.15067       -0.98531
C         -4.41565       -1.74018       -0.99109
H         -4.64530       -2.53451       -1.69369
C         -5.43628       -0.93307       -0.48925
H         -6.46168       -1.10009       -0.80412
C         -5.14479        0.08857        0.41442
H         -5.93974        0.71731        0.80192
C         -3.83203        0.30154        0.81914
H         -3.58852        1.09190        1.52192
C          0.65250        1.71983       -0.37904
O          1.05834        2.65490        0.28071
O         -0.53269        1.72931       -1.00396
C         -1.37536        2.85580       -0.72675
H         -2.31126        2.65734       -1.24656
H         -0.91661        3.77231       -1.10256
H         -1.54468        2.93839        0.34929
H          3.75290       -2.55687        0.08367
H          3.24866        1.35521       -1.11547
H          1.12289        0.07147       -1.61269
H          0.96247       -0.30570        1.40582
