14
id_2319_cb.log	Energy: -320869.5616774
C         -0.04622       -1.22520        0.00001
H          0.50536       -2.15926        0.00002
C         -1.41703       -1.22587        0.00001
H         -1.96581       -2.16355        0.00002
C         -2.17746       -0.00002       -0.00000
C         -1.41702        1.22587       -0.00001
H         -1.96587        2.16350       -0.00002
C         -0.04623        1.22523       -0.00001
H          0.50536        2.15928       -0.00002
C          0.65500        0.00000       -0.00000
N          2.06003       -0.00000       -0.00000
O          2.67490       -1.07961        0.00001
O          2.67492        1.07960       -0.00001
O         -3.45052        0.00001       -0.00000
