12
id_2158_cb.log	Energy: -769344.4960949
C          1.21375       -1.08060       -0.00000
H          2.16086       -1.61164       -0.00000
C          0.00002       -1.83272        0.00000
C         -1.21374       -1.08060        0.00000
H         -2.16083       -1.61166        0.00000
C         -1.17887        0.30206        0.00000
C         -0.00000        1.04657       -0.00000
H         -0.00001        2.12973       -0.00000
C          1.17887        0.30206       -0.00000
Cl         2.70296        1.18172       -0.00000
Cl        -2.70297        1.18170        0.00000
O         -0.00000       -3.12817        0.00000
