25
id_2219_cb.log	Energy: -208057.2071457
C          4.26977        0.51929        0.09255
H          4.19911        1.48558       -0.41891
H          5.21210        0.04983       -0.20612
H          4.31914        0.71628        1.16913
C          3.07076       -0.36190       -0.24381
H          3.17348       -1.33309        0.25729
H          3.05492       -0.56930       -1.32160
C          1.74363        0.27415        0.16331
H          1.63935        1.24648       -0.33853
H          1.75845        0.48337        1.24229
C          0.53391       -0.59678       -0.16606
H          0.63880       -1.56886        0.33572
H          0.52006       -0.80574       -1.24501
C         -0.79316        0.04022        0.23993
H         -0.88750        1.01411       -0.25931
H         -0.78477        0.24345        1.32048
C         -2.00034       -0.83218       -0.09762
H         -1.88007       -1.81488        0.37805
H         -2.03124       -1.00911       -1.18235
C         -3.33267       -0.22923        0.34504
H         -3.31953       -0.07982        1.43082
H         -4.13807       -0.94120        0.13736
N         -3.69101        1.04979       -0.27907
H         -3.62749        0.92722       -1.29050
H         -2.96109        1.72565       -0.05543
