28
id_2169_cb.log	Energy: -584245.2276952
C         -5.45085       -1.22620        0.34929
H         -5.75830       -0.18469        0.46281
H         -5.87665       -1.83802        1.14249
H         -5.75364       -1.60394       -0.62926
O         -4.02665       -1.33584        0.50247
C         -3.28442       -0.65485       -0.37556
O         -3.77217        0.01653       -1.26859
C         -1.80844       -0.85598       -0.16540
H         -1.63023       -1.17396        0.86462
H         -1.49863       -1.67488       -0.82703
C         -1.02247        0.41089       -0.50459
C          0.46319        0.18601       -0.33511
C          0.99590       -0.04783        0.94109
H          0.33918       -0.05706        1.80795
C          2.35598       -0.25727        1.11878
H          2.77165       -0.43337        2.10404
C          3.17802       -0.23083       -0.00559
C          2.68754       -0.00248       -1.28626
H          3.35506        0.01300       -2.13999
C          1.32105        0.20585       -1.43935
H          0.91660        0.38835       -2.43074
N          4.61154       -0.44873        0.16765
O          5.03735       -0.65798        1.29535
O          5.33042       -0.41386       -0.82168
C         -1.47684        1.62251        0.34679
O         -2.38318        1.43920        1.20126
O         -0.89694        2.71795        0.11088
H         -1.20854        0.67875       -1.55049
