20
id_2054_cb.log	Energy: -313007.3784100
C         -2.93991        0.19880       -0.72796
H         -3.85719        0.36024       -1.28708
C         -2.34949       -1.06656       -0.69530
H         -2.80830       -1.89488       -1.22835
C         -1.17275       -1.27177        0.02395
H         -0.72201       -2.26218        0.04817
C         -0.56312       -0.22102        0.72287
C         -1.16429        1.04145        0.68139
H         -0.70132        1.86767        1.21665
C         -2.34343        1.25259       -0.03616
H         -2.79397        2.24127       -0.05431
C          0.71986       -0.45341        1.48789
H          0.97335        0.44683        2.05617
H          0.56947       -1.26250        2.21286
C          1.88952       -0.83778        0.57712
H          1.67744       -1.77494        0.05299
H          2.78441       -1.01373        1.18888
C          2.26433        0.22567       -0.45709
O          2.09358        1.44193       -0.15927
O          2.76064       -0.18139       -1.54901
