14
id_2385_cb.log	Energy: -757162.7591343
C          0.91329        2.28941       -0.00354
H          1.20198        3.33528       -0.00212
C          1.89269        1.30944       -0.00172
H          2.94464        1.57867        0.00052
C          1.55387       -0.05274       -0.00228
C          0.18879       -0.38998       -0.00232
C         -0.78645        0.60809        0.00150
C         -0.43854        1.95262       -0.00057
H         -1.21193        2.71170        0.00138
Cl        -2.47645        0.18362        0.00811
Cl        -0.25168       -2.07450       -0.01051
N          2.53645       -1.02441       -0.07037
H          2.29910       -1.91395        0.35459
H          3.44744       -0.69692        0.23261
