22
id_2371_cb.log	Energy: -355688.6990098
C          0.47501       -2.52469       -0.24796
H          1.38188       -2.46305       -0.85313
H         -0.22033       -3.23017       -0.70519
H          0.75359       -2.91683        0.73677
C         -0.19682       -1.18747       -0.10573
C          0.51931        0.01429       -0.01196
C         -0.22953        1.20017        0.06748
N         -1.56103        1.18365        0.09638
C         -2.15262       -0.02188        0.02443
N         -1.53142       -1.20611       -0.09077
N         -3.50686       -0.04377        0.10976
H         -3.97317       -0.88879       -0.19220
H         -3.99159        0.82779       -0.05771
C          0.42178        2.55179        0.13258
H          1.29800        2.54372        0.78567
H         -0.29844        3.28585        0.49589
H          0.75872        2.85393       -0.86374
C          2.01238        0.08018       -0.06591
O          2.59844        0.81871       -0.86479
N          2.67457       -0.68595        0.81766
H          3.68679       -0.70558        0.79119
H          2.19317       -1.26555        1.49191
