20
id_2372_ca.log	Energy: -331300.6122634
C         -3.84596       -0.65260        0.04211
H         -3.69544       -1.35112       -0.78580
H         -4.85681       -0.25547       -0.00886
H         -3.71727       -1.17632        0.99396
N         -2.92044        0.46691       -0.05780
H         -3.27823        1.41152       -0.14964
C         -1.60810        0.34887       -0.02911
N         -0.83337        1.45185       -0.13089
C          0.46753        1.28006       -0.10624
H          1.07987        2.17453       -0.17783
C          1.10943        0.02231        0.00088
C          0.29041       -1.06478        0.12121
H          0.61766       -2.09060        0.24652
N         -1.04973       -0.88608        0.10848
C          2.60222       -0.02356        0.02776
O          3.23769        1.00070        0.28239
N          3.18091       -1.20751       -0.22177
H          4.19286       -1.24985       -0.23366
H          2.66977       -2.00175       -0.58318
H         -1.64870       -1.70455        0.21362
