22
id_2178_cb.log	Energy: -625894.8764705
C          4.60563        0.08205        0.01972
H          5.69010        0.14072        0.03630
C          3.95559       -1.06251        0.48293
H          4.53256       -1.89825        0.86908
C          2.56365       -1.13661        0.46272
H          2.06910       -2.02584        0.84482
C          1.79302       -0.06916       -0.02182
C          2.45869        1.07470       -0.48686
H          1.88262        1.90617       -0.88439
C          3.85041        1.15053       -0.46548
H          4.34541        2.04394       -0.83590
C          0.30684       -0.15022       -0.03983
C         -0.33435       -1.37013       -0.31239
H          0.23985       -2.26295       -0.53971
C         -1.72694       -1.42036       -0.31941
H         -2.23867       -2.35450       -0.53590
C         -2.47401       -0.27892       -0.06060
C         -1.88606        0.99135        0.21552
C         -0.46137        0.98597        0.21559
H          0.02671        1.92982        0.45017
O         -2.57399        2.06282        0.45510
Cl        -4.22720       -0.39775       -0.06975
