42
id_2128_cb.log	Energy: -543075.3561628
C         -3.27851        1.62592        0.10520
H         -3.20615        1.72702       -0.98211
H         -2.38387        2.07700        0.55074
H         -4.14957        2.19047        0.45093
C         -3.38322        0.16389        0.51904
H         -4.29054       -0.27090        0.07955
C         -3.47569        0.04838        2.04133
H         -4.31030        0.64622        2.42179
H         -2.55184        0.41958        2.50224
H         -3.62916       -0.98551        2.36459
N         -2.24478       -0.56767       -0.05756
H         -1.38409       -0.12518        0.26705
C         -2.20525       -1.98462        0.31028
H         -1.90241       -2.16850        1.35055
H         -3.21973       -2.38059        0.18736
C         -1.27134       -2.75437       -0.63453
C          0.19767       -2.61553       -0.26929
H          0.81683       -3.14829       -1.00170
H          0.38286       -3.03623        0.72730
O          0.51820       -1.22904       -0.28393
C          1.78847       -0.86265        0.04219
C          2.81522       -1.74033        0.36005
H          2.63716       -2.80952        0.36078
C          4.08528       -1.24165        0.67616
H          4.88199       -1.93613        0.92154
C          4.31856        0.12365        0.67424
H          5.30031        0.51511        0.91954
C          3.28644        1.01580        0.35605
H          3.47676        2.08283        0.36145
C          2.02550        0.53002        0.03932
O          0.94483        1.30027       -0.28346
C          1.17245        2.70125       -0.44990
H          1.47029        3.15480        0.50325
H          1.98567        2.84474       -1.17413
C         -0.09939        3.30277       -0.95767
H         -0.52469        2.83343       -1.84368
C         -0.68361        4.35786       -0.39814
H         -1.59081        4.78958       -0.81080
H         -0.26916        4.83075        0.48944
O         -1.50062       -2.33130       -1.96904
H         -1.77280       -1.39625       -1.86627
H         -1.50807       -3.82260       -0.57109
