14
id_2162_ca.log	Energy: -3477643.5642777
C          1.20800        1.41138       -0.00000
H          2.14371        1.96030       -0.00000
C         -0.00883        2.09526        0.00000
C         -1.22255        1.40149       -0.00000
H         -2.16115        1.94522       -0.00000
C         -1.20707        0.01874       -0.00001
C         -0.00219       -0.69960       -0.00000
C          1.19714        0.02686       -0.00001
Br         2.83049       -0.91340        0.00000
O         -0.07032       -2.04250       -0.00000
H          0.81611       -2.44687        0.00000
Br        -2.82514       -0.93371        0.00000
C         -0.01369        3.52967        0.00000
N         -0.01834        4.68962        0.00000
