78
id_2089_cb.log	Energy: -1052856.2172148
C          5.13744       -3.28719        0.01584
H          5.17048       -3.02987        1.07920
H          6.15219       -3.49816       -0.32477
H          4.53360       -4.19283       -0.09685
C          4.58969       -2.16604       -0.79386
N          5.22475       -1.53767       -1.75221
N          4.38250       -0.56518       -2.23629
C          3.25968       -0.62783       -1.56058
N          3.33870       -1.63571       -0.63468
C          2.36426       -2.05055        0.38182
H          2.83535       -2.90165        0.88144
C          1.05267       -2.56197       -0.22824
H          0.63616       -1.84070       -0.93852
H          1.24971       -3.49381       -0.76964
C          0.01877       -2.79263        0.87977
C          0.55201       -3.71838        2.00258
H         -0.27502       -4.25794        2.47205
H          1.25046       -4.46438        1.61086
C          1.21582       -2.74178        3.00362
H          2.28073       -2.94669        3.15112
H          0.73381       -2.79567        3.98302
C          0.99147       -1.34678        2.36095
C          2.15193       -0.95957        1.44063
H          3.07505       -0.84193        2.01936
H          1.92844        0.00266        0.96872
N         -0.22143       -1.49064        1.53230
C         -1.43214       -1.46248        2.35655
H         -1.41618       -2.21362        3.16428
H         -1.45557       -0.48023        2.84306
C         -2.71568       -1.65816        1.54956
H         -3.56882       -1.37625        2.17981
H         -2.85824       -2.71204        1.28696
C         -2.75717       -0.84433        0.25019
C         -4.06337       -1.07647       -0.48493
C         -4.13910       -2.08398       -1.44870
H         -3.24493       -2.65334       -1.69379
C         -5.34232       -2.35812       -2.09601
H         -5.38585       -3.14072       -2.84752
C         -6.48487       -1.62355       -1.78393
H         -7.42249       -1.83174       -2.29008
C         -6.41732       -0.61767       -0.82060
H         -7.30390       -0.04171       -0.57279
C         -5.21390       -0.34866       -0.17244
H         -5.16641        0.43715        0.57742
N         -2.50413        0.55959        0.54413
H         -2.81034        0.91985        1.44172
C         -1.62102        1.29168       -0.16073
O         -1.13505        0.89897       -1.22987
C         -1.20343        2.61002        0.46034
H         -1.93537        2.90511        1.22289
C          0.15813        2.38510        1.14620
H          0.06628        1.61664        1.92220
H          0.86735        2.01123        0.39666
C          0.69225        3.68149        1.75456
H          1.69836        3.54493        2.16288
H          0.03633        4.02688        2.56066
C          0.74265        4.76670        0.70519
C         -0.57346        5.01168        0.00589
H         -1.27550        5.40517        0.74872
H         -0.42172        5.77675       -0.76148
C         -1.10382        3.71144       -0.60007
H         -0.43147        3.37529       -1.39681
H         -2.08371        3.88768       -1.05386
F          1.19603        5.93337        1.26558
F          1.68830        4.42388       -0.23863
C          2.07901        0.26568       -1.81891
H          1.34693        0.12530       -1.01966
C          1.41703       -0.10841       -3.14962
H          0.54990        0.53330       -3.33139
H          1.08352       -1.15125       -3.15065
H          2.12491        0.02486       -3.97413
C          2.50836        1.73419       -1.81482
H          2.96513        2.01444       -0.86008
H          1.63722        2.37653       -1.97829
H          3.23321        1.92507       -2.61240
H         -0.90259       -3.17100        0.42949
H          0.83737       -0.56041        3.10609
H         -1.93692       -1.17319       -0.39381
