16
id_212_ca.log	Energy: -225471.9974600
C          0.62426        1.22764        0.00092
H          1.17958        2.16089        0.00543
C         -0.75135        1.21592       -0.00243
H         -1.32181        2.13808       -0.00172
C         -1.42290       -0.02845       -0.00543
N         -0.77076       -1.20041       -0.00075
C          0.56419       -1.17218        0.00079
H          1.07560       -2.13266        0.00529
C          1.28819        0.00089        0.00006
N          2.75131       -0.04499        0.00367
H          3.09375       -1.01509        0.00949
H          3.15143        0.41373       -0.82618
N         -2.78721       -0.07545       -0.06595
H         -3.20755       -0.95388        0.21238
H         -3.28646        0.74940        0.24278
H          3.14779        0.42261        0.83027
