19
id_2375_cb.log	Energy: -431750.2894690
C          3.30630        0.01298        0.00169
H          3.46326        0.14885        1.07745
H          3.20485        1.00489       -0.45092
H          4.20471       -0.45143       -0.41419
C          2.07618       -0.84994       -0.26234
H          2.23731       -1.86042        0.12813
H          1.90358       -0.94353       -1.34171
C          0.81983       -0.27752        0.38247
C          0.49675        1.13479       -0.13624
H          0.77520        1.24198       -1.18951
H          0.98917        1.91379        0.44653
S         -1.31266        1.28809        0.01604
C         -1.42372       -0.50147        0.02394
N         -0.34054       -1.15175        0.17169
C         -2.77642       -1.11587       -0.12568
H         -3.44505       -0.75060        0.66026
H         -2.70277       -2.20222       -0.05794
H         -3.21476       -0.83904       -1.08912
H          0.97727       -0.22741        1.46943
