16
id_296_cb.log	Energy: -1922119.5172994
C         -0.49484       -1.38658        0.00082
H         -1.08911       -2.29133        0.00073
C          0.87690       -1.43378        0.00070
H          1.39299       -2.38553        0.00038
C          1.64369       -0.25665        0.00081
C          1.03875        1.02848        0.00110
C         -0.38294        1.04968        0.00047
H         -0.88060        2.01367       -0.00004
C         -1.10129       -0.11799        0.00052
Br        -2.99082       -0.02572       -0.00055
N          1.69100        2.20201        0.00800
H          2.69792        2.23963       -0.02299
H          1.15601        3.05967       -0.01963
N          3.06757       -0.41096       -0.00064
O          3.78058        0.59428       -0.00196
O          3.54566       -1.54081       -0.00021
