29
id_2092_ca.log	Energy: -646572.0144944
C         -1.44086       -0.15339        2.34869
H         -0.52901        0.31927        2.72756
H         -1.32615       -1.23999        2.42636
H         -2.27749        0.15443        2.98320
C         -1.71321        0.25340        0.89162
C         -3.01166       -0.37520        0.39961
H         -3.83892       -0.01543        1.01746
H         -2.97655       -1.46386        0.48510
S         -3.45571        0.07844       -1.31456
H         -2.45904       -0.59812       -1.91159
C         -0.53403       -0.21581        0.05953
O         -0.51270       -1.35681       -0.44082
N          0.52301        0.60347       -0.07217
C          0.68778        1.96735        0.46009
H         -0.20253        2.56774        0.26964
H          0.87549        1.93223        1.53976
C          1.91015        2.46899       -0.30382
H          1.60750        2.82346       -1.29454
H          2.41754        3.28130        0.22031
C          2.77929        1.21586       -0.43106
H          3.29958        1.02815        0.51470
H          3.51607        1.26893       -1.23387
C          1.74821        0.09681       -0.68463
C          2.19023       -1.19147       -0.01951
O          2.05453       -1.43927        1.16216
O          2.81909       -2.00401       -0.87347
H          3.14533       -2.78997       -0.39196
H         -1.80437        1.34136        0.83276
H          1.60014       -0.08721       -1.75284
