28
id_2287_cb.log	Energy: -279765.4130507
C         -3.22631        0.00773        0.41659
H         -3.13732       -0.22858        1.48604
H         -4.29469        0.11797        0.20043
C         -2.48819        1.31610        0.13070
H         -2.89479        2.12751        0.74429
H         -2.64750        1.59743       -0.91940
C         -0.98656        1.17247        0.38508
H         -0.81070        0.96166        1.44937
H         -0.47713        2.11549        0.15547
C         -0.38418        0.01791       -0.43970
H         -0.53018        0.26318       -1.50338
C         -1.13239       -1.28500       -0.14089
H         -0.71390       -2.09981       -0.74244
H         -0.97140       -1.54882        0.91398
C         -2.63286       -1.14108       -0.40025
H         -2.79649       -0.94507       -1.46893
H         -3.14484       -2.08085       -0.16606
C          1.09292       -0.10212       -0.20197
C          1.78424       -1.09125        0.38275
H          1.37177       -2.03193        0.72474
C          3.25967       -0.76048        0.34334
H          3.76651       -1.30721       -0.46471
H          3.79643       -0.98179        1.27033
C          3.21934        0.74739        0.05004
H          4.06708        1.09725       -0.54235
H          3.20163        1.30603        0.99527
N          1.94685        0.92734       -0.67711
H          1.55354        1.85613       -0.54699
