19
id_2139_ca.log	Energy: -912572.0770868
C         -1.77100        2.20157       -0.84638
H         -2.15964        3.16949       -0.53114
H         -2.57180        1.60557       -1.29292
H         -0.95598        2.33503       -1.56280
O         -1.27279        1.56803        0.34769
C         -0.75631        0.32042        0.13989
C         -1.57107       -0.81345        0.08589
C         -1.01725       -2.07728       -0.08346
H         -1.66270       -2.94868       -0.12575
C          0.36194       -2.22719       -0.19035
H          0.79611       -3.21156       -0.32798
C          1.17575       -1.10344       -0.11051
C          0.63035        0.16869        0.05117
C          1.47561        1.40394        0.13880
O          1.50928        2.25787       -0.72105
O          2.17091        1.46034        1.27331
H          2.71382        2.27480        1.28139
Cl         2.90251       -1.28882       -0.25389
Cl        -3.28999       -0.63789        0.26855
