21
id_2289_cb.log	Energy: -206540.4452230
C          2.75653       -0.21733       -0.12201
H          2.74617       -1.24461        0.25446
H          3.64028        0.27976        0.28783
H          2.85426       -0.25118       -1.21158
C          1.50173        0.54057        0.28181
H          1.58860        1.58083       -0.04397
H          1.41317        0.54631        1.38277
N          0.29880       -0.03186       -0.32236
C          0.04226       -1.42325        0.10116
H          0.63009       -2.13417       -0.48304
H          0.32053       -1.53289        1.16296
C         -1.47362       -1.60377       -0.05659
H         -1.72472       -1.99471       -1.05254
H         -1.87887       -2.30454        0.67892
C         -1.94919       -0.18075        0.10675
H         -2.98259        0.12514        0.21671
C         -0.91646        0.65658       -0.05671
C         -0.93901        2.15036       -0.05134
H         -1.96801        2.50935        0.01904
H         -0.49016        2.55071       -0.96717
H         -0.37378        2.55856        0.79373
