17
id_2042_ca.log	Energy: -358364.7540577
C          1.52140       -1.41371        0.00000
H          2.09838       -2.33216        0.00000
C          0.14228       -1.42616        0.00000
H         -0.38432       -2.37462        0.00000
C         -0.60404       -0.23264       -0.00000
C          0.08774        0.99840       -0.00000
C          1.48227        1.02166       -0.00000
H          2.00362        1.97467       -0.00000
C          2.18655       -0.17638        0.00000
O          3.54588       -0.20733       -0.00000
H          3.90495        0.69697        0.00000
O         -0.54512        2.19579       -0.00000
H         -1.51553        2.03563        0.00000
C         -2.06646       -0.24869        0.00000
O         -2.76945        0.76266        0.00000
O         -2.60928       -1.47048       -0.00000
H         -3.58181       -1.38054        0.00000
