21
id_2043_cb.log	Energy: -276890.9466761
C          2.83860        0.14558       -0.33604
H          3.87978        0.24660       -0.62664
C          2.00861        1.26330       -0.30204
H          2.40102        2.24045       -0.56774
C          0.67184        1.13444        0.07625
H          0.02972        2.00921        0.11410
C          0.15205       -0.11307        0.42262
C          0.99123       -1.23141        0.38499
H          0.59350       -2.20667        0.65817
C          2.32554       -1.10515        0.00988
H          2.96732       -1.98096       -0.00838
C         -1.31346       -0.28877        0.78721
C         -2.10043       -0.87186       -0.39273
H         -3.11196       -1.10436       -0.04844
H         -1.63166       -1.80623       -0.72682
N         -2.19771        0.15915       -1.42955
H         -2.89181       -0.12152       -2.11798
H         -1.30868        0.21343       -1.92534
O         -1.92249        0.93158        1.17385
H         -2.22063        1.32240        0.32803
H         -1.38652       -0.97738        1.63612
