37
id_21_ca.log	Energy: -551341.1202193
C         -3.09082        1.88391        1.08962
H         -4.01537        2.44980        0.97520
H         -2.74291        1.95597        2.12579
H         -3.27489        0.83219        0.84233
O         -2.15769        2.47203        0.19570
C         -0.89735        1.93058        0.16724
C          0.02766        2.55376       -0.66674
H         -0.27408        3.43024       -1.23112
C          1.32289        2.05570       -0.77330
H          2.02832        2.55567       -1.42648
C          1.69402        0.92094       -0.05111
C          0.77071        0.29161        0.79391
C         -0.51822        0.80674        0.90464
H         -1.21801        0.31138        1.56660
C          1.15772       -0.99698        1.50416
C          1.38909       -2.14809        0.48976
H          1.17033       -3.09156        0.99730
H          2.42780       -2.16286        0.16591
N          0.57921       -2.04173       -0.71965
H          1.03228       -1.69039       -1.55669
C         -0.75051       -1.97517       -0.65920
O         -1.41362       -2.18447        0.36519
C         -1.46589       -1.63664       -1.95488
H         -1.68922       -2.55117       -2.50703
H         -0.89376       -0.95497       -2.58325
N         -2.75244       -0.98860       -1.59627
H         -2.60496       -0.02519       -1.26837
H         -3.19753       -1.50923       -0.82795
O          0.21707       -1.37256        2.49460
H         -0.54209       -1.75701        2.01562
O          2.93269        0.33959       -0.11910
C          3.89516        0.95942       -0.95995
H          4.80209        0.36179       -0.87040
H          4.09828        1.98537       -0.63543
H          3.56110        0.96438       -2.00288
H          2.10372       -0.84347        2.03353
H         -3.39284       -0.96004       -2.39735
