58
id_2084_ca.log	Energy: -1122497.6955815
C          1.55829       -3.14152        1.89806
H          1.28822       -3.84919        2.68464
H          2.36429       -3.56691        1.29283
H          1.93743       -2.22691        2.36755
C          0.37877       -2.81862        1.03767
C         -0.91484       -3.25732        1.36595
H         -1.07410       -3.87567        2.24452
N         -1.98341       -2.92676        0.64923
C         -1.77143       -2.17407       -0.43441
C         -0.49119       -1.76675       -0.79701
H         -0.32846       -1.16489       -1.68631
N          0.57813       -2.07586       -0.05809
C         -2.94661       -1.68432       -1.23231
O         -2.75834       -1.00977       -2.25313
N         -4.16152       -2.00744       -0.75465
H         -4.17324       -2.46423        0.15375
C         -5.34767       -1.25000       -1.13595
H         -5.17772       -0.84932       -2.13609
H         -6.20470       -1.92516       -1.17791
C         -5.63214       -0.11054       -0.13661
H         -5.98477       -0.54131        0.80609
H         -6.43372        0.50989       -0.55019
C         -4.38949        0.70408        0.11192
C         -3.97440        1.68145       -0.80017
H         -4.60700        1.92815       -1.64916
C         -2.74221        2.31324       -0.65794
H         -2.40810        3.05421       -1.37746
C         -1.93959        1.96272        0.42595
C         -2.33847        1.02280        1.37533
H         -1.70201        0.77361        2.22044
C         -3.56841        0.39773        1.20495
H         -3.88983       -0.35382        1.92166
S         -0.33987        2.69578        0.59365
O         -0.20045        3.82014       -0.32824
O         -0.05070        2.93455        2.00907
N          0.60358        1.42043        0.02339
H          0.16996        0.50780        0.17457
C          2.00687        1.49764        0.14838
O          2.55934        2.59404        0.27034
N          2.63211        0.31428        0.09923
H          2.08810       -0.54062       -0.04267
C          4.09076        0.22340       -0.00095
H          4.51003        0.95984        0.69537
C          4.57298        0.54539       -1.41790
H          4.24794        1.55389       -1.69803
H          4.09715       -0.16099       -2.11304
C          6.09448        0.41561       -1.51515
H          6.56415        1.16368       -0.86080
H          6.42174        0.63438       -2.53756
C          6.55023       -0.98231       -1.09246
H          7.64281       -1.05635       -1.13605
H          6.14808       -1.72142       -1.79994
C          6.05610       -1.31480        0.31733
H          6.53138       -0.63272        1.03619
H          6.35164       -2.33166        0.59808
C          4.53561       -1.17330        0.42644
H          4.04852       -1.91371       -0.22594
H          4.20313       -1.37014        1.45214
