24
id_2183_cb.log	Energy: -408607.2367274
C         -4.05543       -1.08888        0.02226
H         -4.98683       -1.64752        0.00698
C         -2.98389       -1.54001        0.79359
H         -3.08189       -2.44407        1.38731
C         -1.78267       -0.83219        0.80427
H         -0.95286       -1.18268        1.41185
C         -1.65427        0.34434        0.05674
C         -2.74032        0.80456       -0.69739
H         -2.64097        1.72314       -1.26938
C         -3.93144        0.08365       -0.72599
H         -4.76384        0.43735       -1.32734
C         -0.40723        1.17748        0.09985
O         -0.53646        2.41061        0.19196
C          0.90316        0.54243        0.03593
C          2.05280        1.28738        0.38914
H          1.92544        2.30863        0.74036
C          3.31567        0.74395        0.31822
H          4.18545        1.32712        0.61192
C          3.53098       -0.60108       -0.13658
C          2.35806       -1.33281       -0.51410
H          2.48721       -2.34741       -0.88339
C          1.09712       -0.78084       -0.42249
H          0.24250       -1.37338       -0.73829
O          4.70778       -1.11675       -0.20204
