26
id_2394_ca.log	Energy: -301986.2306748
C          4.37522       -0.67526       -0.59374
H          5.12106       -1.35055       -0.16658
H          4.80996        0.32574       -0.65857
H          4.13201       -1.02040       -1.60221
C          3.14369       -0.66822        0.28045
H          3.36156       -0.31589        1.29218
H          2.68547       -1.65837        0.34917
O          2.19422        0.23487       -0.32526
C          1.02527        0.37529        0.30775
O          0.75109       -0.22616        1.32860
C          0.13190        1.37759       -0.37825
H          0.56263        2.36563       -0.17626
H          0.20332        1.22082       -1.45933
C         -1.31238        1.30895        0.10192
H         -1.33844        1.39502        1.19371
H         -1.85686        2.16774       -0.30406
C         -2.00629        0.01828       -0.33042
H         -1.48215       -0.84911        0.08788
H         -1.97549       -0.06979       -1.42346
C         -3.44993        0.00514        0.13337
H         -4.02494        0.82147       -0.30554
H         -3.53019        0.05441        1.22001
N         -4.11894       -1.26611       -0.28845
H         -3.65502       -2.08067        0.13031
H         -4.08352       -1.37887       -1.30817
H         -5.10420       -1.28458       -0.00319
