30
id_2192_ca.log	Energy: -655027.7726363
C          3.04847        2.94590        0.38938
H          3.19214        4.01415        0.52063
C          2.30026        2.22405        1.31962
H          1.86542        2.72488        2.17911
C          2.12246        0.85071        1.16291
H          1.56016        0.27326        1.89132
C          2.67370        0.21984        0.04845
C          3.42922        0.92741       -0.88624
H          3.85302        0.41041       -1.74197
C          3.61957        2.29503       -0.70607
H          4.20555        2.85423       -1.42900
N          2.48936       -1.17880       -0.14114
C          1.37304       -1.92509       -0.04336
O          1.46427       -3.16396        0.00354
C          0.04976       -1.23277       -0.04831
C         -0.23732       -0.19604       -0.94111
H          0.51679        0.15977       -1.63692
C         -1.50442        0.37554       -0.94774
H         -1.73647        1.17465       -1.64500
C         -2.47040       -0.08618       -0.05338
C         -2.19417       -1.12499        0.83335
H         -2.95334       -1.48155        1.52204
C         -0.92941       -1.70545        0.82698
H         -0.69852       -2.51911        1.50764
C         -3.84571        0.51427       -0.09678
F         -3.81947        1.83092       -0.37522
F         -4.50982        0.37180        1.06315
F         -4.61435       -0.05733       -1.04985
O          3.69112       -1.87874       -0.22814
H          3.40916       -2.81954       -0.27205
