12
id_2434_cb.log	Energy: -395232.4060674
C          0.00008       -2.27040        0.00000
H          0.00010       -3.35655        0.00000
C          1.20087       -1.55616        0.00000
H          2.14941       -2.08843        0.00000
C          1.20022       -0.16209        0.00000
H          2.14713        0.37272        0.00000
C          0.00000        0.58362        0.00000
C         -1.20019       -0.16216        0.00000
H         -2.14712        0.37261        0.00000
C         -1.20076       -1.55623        0.00000
H         -2.14926       -2.08857        0.00000
S         -0.00010        2.34555        0.00000
