47
id_2134_cb.log	Energy: -545230.3999844
C         -2.97749       -3.09163       -1.21678
H         -4.04245       -3.32306       -1.13111
H         -2.78852       -2.67854       -2.21145
H         -2.40799       -4.03030       -1.11388
N         -2.60098       -2.11777       -0.19452
C         -2.90633       -2.66525        1.12744
H         -3.96555       -2.93235        1.17175
H         -2.71280       -1.92183        1.90373
H         -2.30856       -3.56653        1.34258
C         -1.16450       -1.82531       -0.31938
H         -0.96823       -1.63160       -1.37838
H         -0.57372       -2.71787       -0.04501
C         -0.67187       -0.63436        0.52240
C          0.83569       -0.50440        0.39532
C          1.49972       -0.55780       -0.83197
H          0.93844       -0.70363       -1.75068
C          2.88698       -0.42761       -0.92718
H          3.36017       -0.47639       -1.90085
C          3.63956       -0.24019        0.23157
C          2.99737       -0.18993        1.47309
H          3.59594       -0.04992        2.36787
C          1.61908       -0.32334        1.54450
H          1.13320       -0.28512        2.51658
O          4.99926       -0.10112        0.25322
C          5.67448       -0.15017       -0.99543
H          5.51949       -1.11508       -1.48971
H          6.73319       -0.02178       -0.77052
H          5.33997        0.65662       -1.65625
C         -1.44929        0.68692        0.23562
C         -1.39902        1.11354       -1.24001
H         -0.35119        1.24716       -1.53743
H         -1.81781        0.31852       -1.86928
C         -2.16188        2.42019       -1.47666
H         -3.22593        2.25707       -1.26634
H         -2.08399        2.70637       -2.53118
C         -1.63679        3.54061       -0.57824
H         -0.59344        3.75817       -0.84720
H         -2.20875        4.46074       -0.74160
C         -1.69600        3.12758        0.89315
H         -2.74246        2.99251        1.19250
H         -1.28025        3.91617        1.52975
C         -0.92583        1.82467        1.11886
H         -0.98648        1.51078        2.16894
H          0.13308        1.99165        0.88853
O         -2.81365        0.48214        0.62477
H         -3.08047       -0.35550        0.17969
H         -0.87604       -0.85120        1.57885
