14
id_2014_ca.log	Energy: -974870.6223215
C          1.46416       -0.00000        1.13531
H          1.44919       -0.89141        1.76409
H          1.44919        0.89141        1.76409
C          0.24185       -0.00000        0.21978
C         -1.00145        0.00000        1.10288
H         -0.98933        0.89281        1.73013
H         -0.98933       -0.89281        1.73013
Cl        -2.52302        0.00000        0.17686
Cl         0.27302       -1.45869       -0.82532
Cl         0.27302        1.45869       -0.82533
N          2.74631        0.00000        0.38394
H          2.85328        0.83384       -0.20931
H          2.85328       -0.83383       -0.20932
H          3.53088       -0.00001        1.04931
