25
id_2394_cb.log	Energy: -301692.0568857
C         -4.31949        0.66068       -0.59717
H         -5.07276        1.32364       -0.16375
H         -4.74581       -0.34276       -0.67840
H         -4.07474        1.02226       -1.59949
C         -3.09177        0.65079        0.28245
H         -3.31185        0.28228        1.28795
H         -2.64246        1.64373        0.36819
O         -2.13213       -0.23520       -0.33153
C         -0.96757       -0.38116        0.31062
O         -0.70917        0.20505        1.34446
C         -0.06266       -1.36931       -0.38034
H         -0.48077       -2.36273       -0.17541
H         -0.14421       -1.21377       -1.46099
C          1.38401       -1.27496        0.09073
H          1.41315       -1.35662        1.18366
H          1.93635       -2.13346       -0.30734
C          2.07030        0.01680       -0.34873
H          1.51666        0.88382        0.03583
H          2.05127        0.08682       -1.44521
C          3.51552        0.10029        0.13042
H          4.07411       -0.76281       -0.24917
H          3.53970        0.03012        1.22374
N          4.23289        1.31707       -0.26391
H          3.69364        2.11360        0.07679
H          4.17784        1.38875       -1.28034
