26
id_2186_cb.log	Energy: -713903.9286228
C         -0.29110       -4.43242       -0.00000
H         -0.61660       -5.46823       -0.00000
C         -1.23596       -3.38935       -0.00000
H         -2.29709       -3.62370       -0.00000
C         -0.83392       -2.06557       -0.00000
H         -1.57924       -1.27780        0.00000
C          0.53811       -1.71741       -0.00000
C          1.48306       -2.77409       -0.00000
C          1.05396       -4.11786       -0.00000
H          1.80738       -4.90259       -0.00000
C          2.88659       -2.45364       -0.00000
H          3.59875       -3.27677       -0.00000
C          3.32301       -1.17219       -0.00000
H          4.38468       -0.93865       -0.00000
C          2.41362       -0.03131       -0.00000
C          0.99565       -0.33066       -0.00000
N         -0.00000        0.58701        0.00000
N          0.23600        1.84383        0.00000
C         -0.93873        2.58228        0.00000
N         -0.93702        3.88872        0.00000
C         -2.22648        4.37491        0.00000
H         -2.38663        5.44620        0.00000
C         -3.21607        3.44284        0.00000
H         -4.28639        3.60271        0.00000
S         -2.53804        1.85172        0.00000
O          2.89755        1.13514       -0.00000
