28
id_2019_cb.log	Energy: -232713.5624324
C         -3.06214        0.89819       -0.59728
H         -2.89548        1.75525        0.06564
H         -3.79837        0.24438       -0.12055
H         -3.50527        1.27506       -1.52378
C         -1.75229        0.16669       -0.88011
H         -1.11912        0.80746       -1.50503
H         -1.94627       -0.74706       -1.45737
C         -0.98484       -0.21382        0.38719
C         -1.81963       -1.08390        1.31985
H         -2.68229       -0.53740        1.71023
H         -1.21871       -1.41073        2.17615
H         -2.18035       -1.97618        0.79536
N          0.23688       -0.95757        0.04691
H          0.67970       -1.21581        0.93083
C          1.24425       -0.21890       -0.73251
C          2.48652       -1.09649       -0.84840
H          2.89899       -1.32721        0.14067
H          3.26499       -0.59371       -1.43058
H          2.24523       -2.04406       -1.33886
C          1.58874        1.17850       -0.18835
H          2.34613        1.62156       -0.84666
H          0.70530        1.82445       -0.26218
C          2.09591        1.17728        1.25193
H          2.28237        2.19789        1.59936
H          3.03251        0.61908        1.35018
H          1.36534        0.72540        1.93288
H         -0.75273        0.72268        0.92467
H          0.84076       -0.08334       -1.74324
