13
id_2158_ca.log	Energy: -769634.4368137
C         -1.22472        1.02521       -0.00000
H         -2.17003        1.55923        0.00000
C         -0.01818        1.72637        0.00000
C          1.20647        1.05628       -0.00000
H          2.13393        1.61877        0.00000
C          1.19494       -0.33093        0.00000
C          0.01806       -1.07481        0.00000
H          0.03248       -2.15867        0.00001
C         -1.17667       -0.36331        0.00000
Cl        -2.67917       -1.25436       -0.00000
Cl         2.72020       -1.18223       -0.00000
O          0.02317        3.08947        0.00000
H         -0.87857        3.45404       -0.00001
