21
id_2298_cb.log	Energy: -274502.9035617
C         -2.91634       -0.71484       -1.06569
H         -3.68212       -1.15218       -0.41501
H         -2.08772       -1.42788       -1.13604
H         -3.34510       -0.60727       -2.06618
C         -2.44158        0.62924       -0.52278
H         -3.26769        1.34962       -0.52589
H         -1.65861        1.03854       -1.17127
C         -1.90753        0.52949        0.90591
H         -2.70316        0.19070        1.57566
H         -1.57573        1.50764        1.25894
N         -0.80515       -0.41401        1.05697
H         -1.06784       -1.39293        1.04384
C          0.41196       -0.18945        0.47942
N          0.74983        1.07855        0.18710
C          1.97269        1.25611       -0.31606
H          2.24584        2.28171       -0.55405
C          2.86435        0.21628       -0.53513
H          3.85215        0.37993       -0.94570
C          2.40189       -1.05200       -0.20086
H          3.03028       -1.92773       -0.34587
N          1.19060       -1.27728        0.30059
