26
id_2206_ca.log	Energy: -255342.7662567
C         -3.51753        0.25310       -0.11300
H         -3.36941        0.87312       -0.99439
H         -4.42486        0.41352        0.46116
C         -2.63184       -0.67575        0.23484
H         -2.78797       -1.29765        1.11515
C         -1.40007       -0.95210       -0.56753
H         -1.31291       -0.28067       -1.42441
H         -1.38001       -1.98541       -0.92307
N         -0.14612       -0.78594        0.25443
C         -0.05356        0.56155        0.93276
H         -0.90928        0.61413        1.60949
H          0.86323        0.54633        1.52396
C         -0.05278        1.69441       -0.04623
H         -0.97475        1.88025       -0.59400
C          1.00572        2.48274       -0.21489
H          0.98023        3.32580       -0.89888
H          1.92850        2.31723        0.33685
C          1.06442       -1.10031       -0.58536
H          0.87182       -2.08457       -1.02178
H          1.09930       -0.35424       -1.38267
C          2.32013       -1.10340        0.22831
H          2.34823       -1.78741        1.07551
C          3.37153       -0.34876       -0.07711
H          4.29019       -0.39774        0.49942
H          3.35056        0.33354       -0.92401
H         -0.18606       -1.48346        1.00995
