14
id_248_cb.log	Energy: -320862.3419978
C          1.99718       -0.73108        0.00000
H          3.08180       -0.79669        0.00000
C          1.39256        0.52735       -0.00000
H          1.97012        1.44244       -0.00000
C         -0.00000        0.54185       -0.00000
C         -0.79299       -0.59843        0.00000
H         -1.87459       -0.52159       -0.00000
C         -0.18466       -1.88470        0.00000
C          1.24274       -1.89756        0.00000
H          1.73948       -2.86502        0.00000
O         -0.88532       -2.97835        0.00000
N         -0.67240        1.84533       -0.00000
O          0.01410        2.85977       -0.00000
O         -1.89614        1.87845       -0.00000
