8
id_2064_ca.log	Energy: -720458.0369018
C         -0.24097        0.00436       -0.54364
H         -0.28481        0.01292       -1.63013
C          1.21913       -0.00781       -0.10225
O          2.12285        0.01149       -0.90480
O          1.35482       -0.03866        1.21463
H          2.30348       -0.04398        1.45300
Cl        -1.06377       -1.46291        0.03548
Cl        -1.03677        1.47874        0.05710
