19
id_2195_cb.log	Energy: -735510.3413675
C          0.00425        2.06501       -0.49212
H         -0.79346        2.76347       -0.22584
H         -0.16112        1.72350       -1.52573
H          0.94839        2.61513       -0.46851
N          0.03165        0.96989        0.47746
C         -1.30283        0.42913        0.72658
H         -1.22791       -0.32645        1.51504
H         -1.93680        1.23970        1.09993
C         -1.97319       -0.19819       -0.49415
H         -1.41270       -1.04852       -0.88385
H         -2.14455        0.52393       -1.29259
Cl        -3.59955       -0.83264       -0.02727
C          0.97097       -0.07427        0.07156
H          0.77403       -0.97087        0.66766
H          0.86161       -0.34684       -0.99082
C          2.40383        0.36929        0.32127
H          2.58027        0.57126        1.37741
H          2.68369        1.23950       -0.27185
Cl         3.54007       -0.95082       -0.15755
