20
id_2308_cb.log	Energy: -510462.0612340
C          3.41974       -1.53814        0.00171
H          4.18846       -2.30413        0.00306
C          2.08590       -1.85490       -0.00118
H          1.75109       -2.88957       -0.00227
C          1.11707       -0.81742       -0.00255
C         -0.27394       -1.10254       -0.00591
H         -0.61423       -2.13266       -0.00698
C         -1.14688       -0.03993       -0.00751
C         -0.71979        1.30123       -0.00490
H         -1.45321        2.10421       -0.00553
C          0.64373        1.64761       -0.00148
C          1.58868        0.52565       -0.00088
N          2.91826        0.82022        0.00162
C          3.78501       -0.17260        0.00282
H          4.83793        0.10076        0.00480
O          1.05073        2.87069        0.00045
C         -2.62557       -0.28386       -0.00012
F         -3.21893        0.20977        1.11138
F         -2.95317       -1.58701       -0.05756
F         -3.24873        0.31320       -1.04138
