33
id_272_ca.log	Energy: -445507.1903755
C         -4.88798       -0.87408       -0.08636
H         -4.67663       -1.83291       -0.55848
H         -5.94165       -0.62063       -0.18894
H         -4.60809       -0.88845        0.96528
N         -4.08875        0.17561       -0.77805
H         -4.46992        0.32712       -1.71789
C         -2.62848       -0.12703       -0.89809
H         -2.52274       -1.05358       -1.46376
H         -2.18253        0.70108       -1.45295
C         -1.99535       -0.24593        0.48110
C         -0.49249       -0.35877        0.34114
C          0.12271       -1.59994        0.33649
H         -0.46880       -2.50058        0.47562
C          1.50705       -1.70539        0.15671
H          1.97477       -2.68282        0.15840
C          2.27348       -0.56124       -0.01193
C          1.64906        0.70827       -0.00180
C          0.27700        0.80192        0.16919
H         -0.21259        1.76930        0.18351
O          2.48882        1.76955       -0.16748
C          1.89646        3.06103       -0.16233
H          1.17330        3.16466       -0.97813
H          2.71454        3.76634       -0.30634
H          1.40152        3.26205        0.79361
O          3.62482       -0.54261       -0.18790
C          4.28627       -1.80022       -0.20147
H          5.34307       -1.58105       -0.35190
H          3.92007       -2.42725       -1.02121
H          4.15097       -2.32497        0.75007
O         -2.40973        0.91629        1.18162
H         -2.09660        0.84332        2.09791
H         -2.37001       -1.14846        0.98019
H         -4.18515        1.05993       -0.26440
