24
id_2001_ca.log	Energy: -241555.2931729
C          2.01933       -2.05884        0.01300
H          3.06903       -2.35122       -0.06828
H          1.46232       -2.57268       -0.77666
H          1.65368       -2.39289        0.98590
C          1.93672       -0.55414       -0.15602
H          2.43085       -0.23936       -1.07688
H          2.38233       -0.02260        0.68636
N          0.51011       -0.07486       -0.27260
C          0.43214        1.32191       -0.84135
H          0.99191        1.28318       -1.77691
H         -0.61546        1.50438       -1.08753
C          0.98256        2.38191        0.09062
H          0.90811        3.34344       -0.42324
H          2.03460        2.21036        0.33028
H          0.41065        2.45620        1.01948
C         -0.22269       -0.25079        1.02375
H         -0.19803       -1.31448        1.25846
H          0.32732        0.29734        1.78964
C         -1.66818        0.23844        0.97672
H         -1.73786        1.32351        0.86031
H         -2.13654       -0.02136        1.93038
C         -2.42594       -0.39984       -0.10070
N         -2.99081       -0.90908       -0.97335
H          0.05830       -0.68819       -0.96580
