54
id_28_cb.log	Energy: -1440602.0194019
C          1.56175       -1.13618       -2.96567
H          2.40407       -1.78117       -3.24141
H          0.80432       -1.20184       -3.75118
H          1.94172       -0.10900       -2.93556
C          0.97986       -1.54567       -1.64114
C         -0.33798       -1.97240       -1.51995
H         -0.96022       -1.98975       -2.41330
C         -0.89102       -2.35060       -0.28786
C         -0.06763       -2.33903        0.83393
H         -0.46815       -2.63356        1.80157
C          1.26434       -1.92037        0.74963
H          1.87346       -1.91495        1.64755
C          1.77138       -1.49409       -0.47623
O          3.03001       -0.98347       -0.64991
C          3.90559       -0.97156        0.46435
H          3.44189       -0.48592        1.33027
H          4.76265       -0.36488        0.15685
C          4.42250       -2.36198        0.86663
O          5.04501       -2.39913        1.96374
O          4.22096       -3.32771        0.08883
C         -2.36167       -2.66127       -0.16515
H         -2.57163       -3.00375        0.86243
H         -2.65273       -3.46823       -0.84733
N         -3.19341       -1.49629       -0.49381
C         -4.63021       -1.77904       -0.30110
H         -4.79094       -2.45434        0.55712
H         -5.05410       -2.25911       -1.18826
C         -5.21063       -0.42623       -0.00589
C         -6.53140        0.00984       -0.01963
H         -7.33748       -0.66180       -0.30293
C         -6.80067        1.33501        0.33447
H         -7.82492        1.69643        0.32398
C         -5.76576        2.20310        0.69593
H         -5.99336        3.23098        0.96282
C         -4.44015        1.76098        0.70931
H         -3.63254        2.43604        0.98359
C         -4.18304        0.44156        0.35580
C         -2.86668       -0.29926        0.29972
C         -1.78234        0.54796       -0.37895
O         -1.92203        0.97187       -1.52365
N         -0.71015        0.82370        0.41222
H         -0.71938        0.36653        1.31916
C          0.49436        1.45079        0.06403
C          0.80689        1.86382       -1.23767
H          0.08757        1.71944       -2.03154
C          2.04241        2.43270       -1.53042
H          2.26825        2.73414       -2.54818
C          2.98117        2.59733       -0.52038
C          2.70324        2.21138        0.78460
H          3.43495        2.33640        1.57619
C          1.46550        1.64689        1.06089
Cl         1.14501        1.15399        2.70541
Cl         4.54210        3.28881       -0.88536
H         -2.53981       -0.56554        1.32068
