11
id_2021_ca.log	Energy: -261998.1928508
C         -0.02151       -0.96641       -0.13711
H         -0.00519       -1.46751       -1.10849
H         -0.07142       -1.71792        0.65458
C         -1.26023       -0.10696       -0.06689
O         -2.28811       -0.42642        0.49226
O         -1.11120        1.04162       -0.73510
H         -1.93970        1.55872       -0.69065
C          1.24633       -0.16392        0.01651
O          2.17745       -0.18376       -0.76116
O          1.24077        0.56638        1.13714
H          2.07738        1.06785        1.20441
