21
id_2278_cb.log	Energy: -347572.7353308
C          2.66552       -1.49666       -0.41075
H          3.12615       -2.44535       -0.66853
C          3.44391       -0.36922       -0.12383
H          4.52945       -0.43718       -0.15472
C          2.84703        0.83999        0.20792
H          3.46126        1.70638        0.44567
C          1.43195        1.00337        0.27302
C          0.65203       -0.15610       -0.05348
C          1.27768       -1.36838       -0.36488
H          0.65146       -2.22988       -0.59318
C         -0.83304       -0.10869       -0.03518
C         -1.55529       -1.00990        0.75976
H         -1.02176       -1.71462        1.39051
C         -2.94571       -0.98354        0.73781
H         -3.51936       -1.67430        1.34929
C         -3.58412       -0.05155       -0.07587
H         -4.66585        0.01452       -0.12857
C         -2.79037        0.80650       -0.83202
H         -3.25294        1.54445       -1.48317
N         -1.45263        0.78862       -0.82550
O          0.90031        2.13508        0.64075
