79
id_2089_ca.log	Energy: -1053152.9662294
C          6.02733       -1.91888       -0.16995
H          6.08998       -1.75393        0.91007
H          7.03635       -1.91071       -0.58441
H          5.58527       -2.90558       -0.34009
C          5.23378       -0.85097       -0.83444
N          5.67612       -0.03290       -1.75595
N          4.63511        0.79279       -2.11200
C          3.58824        0.45675       -1.39926
N          3.91773       -0.58369       -0.56586
C          3.08354       -1.31771        0.38843
H          3.76406       -2.02485        0.87029
C          1.99578       -2.14085       -0.32065
H          1.42238       -1.52028       -1.01950
H          2.46615       -2.94166       -0.89853
C          1.03338       -2.76345        0.69277
C          1.72702       -3.55388        1.81058
H          1.05189       -4.31501        2.20755
H          2.61169       -4.06093        1.41862
C          2.07168       -2.50206        2.89563
H          3.14670       -2.41857        3.07221
H          1.59737       -2.75197        3.84627
C          1.52489       -1.17135        2.35375
C          2.52275       -0.40514        1.48939
H          3.34128       -0.04918        2.12158
H          2.01941        0.47223        1.07145
N          0.40119       -1.61775        1.44416
C         -0.84818       -1.93195        2.20814
H         -0.58977       -2.63370        3.00413
H         -1.14515       -0.98563        2.66895
C         -1.97027       -2.50303        1.35370
H         -2.84903       -2.56661        2.00497
H         -1.73657       -3.52566        1.04065
C         -2.32827       -1.69192        0.09665
C         -3.49187       -2.32942       -0.63682
C         -3.30169       -2.87564       -1.90652
H         -2.31872       -2.82643       -2.36766
C         -4.36043       -3.48102       -2.58171
H         -4.19922       -3.90341       -3.56872
C         -5.62125       -3.53874       -1.99300
H         -6.44755       -4.00721       -2.51848
C         -5.81886       -2.99313       -0.72478
H         -6.79905       -3.03574       -0.26017
C         -4.75870       -2.39631       -0.04809
H         -4.92118       -1.98099        0.94450
N         -2.62106       -0.28924        0.40280
H         -3.55565       -0.04747        0.71640
C         -1.72765        0.69368        0.23855
O         -0.55626        0.47059       -0.12982
C         -2.17560        2.11171        0.50409
H         -3.20647        2.11237        0.87796
C         -1.24847        2.73781        1.55910
H         -1.32596        2.18621        2.50140
H         -0.21253        2.65140        1.21098
C         -1.59009        4.21003        1.78719
H         -0.88046        4.68085        2.47405
H         -2.59625        4.31316        2.20683
C         -1.55965        4.95906        0.47593
C         -2.45739        4.37480       -0.58871
H         -3.49268        4.48340       -0.24897
H         -2.33329        4.95636       -1.50712
C         -2.11706        2.90199       -0.81561
H         -1.10591        2.81736       -1.23111
H         -2.80917        2.46791       -1.54315
F         -1.88029        6.27516        0.68416
F         -0.26304        4.96904        0.00324
C          2.25249        1.13690       -1.48223
H          1.53220        0.55370       -0.91025
C          1.75639        1.19028       -2.92818
H          0.75714        1.63715       -2.95697
H          1.69898        0.18772       -3.36355
H          2.42364        1.79722       -3.54781
C          2.32257        2.54040       -0.86992
H          2.66021        2.50726        0.17141
H          1.33681        3.01709       -0.89760
H          3.02194        3.16650       -1.43397
H          0.25711       -3.32698        0.17443
H          1.10294       -0.52242        3.12262
H         -1.46965       -1.67716       -0.58219
H          0.16077       -0.85059        0.77850
