47
id_2149_ca.log	Energy: -792540.9222016
C          1.20505        3.09950        1.21745
H          0.52005        2.44743        1.76911
H          2.16847        3.11403        1.73483
H          0.79455        4.11335        1.20961
C          1.38521        2.61658       -0.21541
C          0.08493        2.56165       -0.99440
H          0.26083        2.24890       -2.02934
H         -0.41220        3.53111       -0.97876
O         -0.82551        1.64068       -0.38020
C         -0.31244        0.39497       -0.18921
C          1.07789        0.17305       -0.13425
N          1.95374        1.25139       -0.22947
C          3.26994        1.06027       -0.18817
H          3.86693        1.96416       -0.25002
C          3.86451       -0.18594       -0.07064
C          3.04114       -1.37371        0.03521
O          3.47466       -2.53400        0.14300
C          1.58606       -1.12669        0.00531
C          0.69385       -2.19547        0.14039
H          1.05869       -3.20812        0.27353
C         -0.65591       -1.94340        0.14645
C         -1.21692       -0.66441       -0.03558
N         -2.59187       -0.38261       -0.09117
C         -3.11552        0.38245        1.04540
H         -3.27052       -0.27913        1.91296
H         -2.40753        1.16104        1.33251
C         -4.42147        1.04913        0.66286
H         -4.86383        1.56603        1.51603
H         -4.28579        1.74851       -0.16657
N         -5.40923        0.02278        0.19858
H         -5.58933       -0.61402        0.98725
C         -4.83475       -0.79428       -0.92020
H         -4.69373       -0.11317       -1.76285
H         -5.57297       -1.55595       -1.17707
C         -3.52852       -1.43350       -0.48388
H         -3.12536       -1.99315       -1.33011
H         -3.72990       -2.13617        0.33778
C         -6.70318        0.64788       -0.18917
H         -7.39624       -0.14250       -0.47707
H         -7.08868        1.20314        0.66594
H         -6.51721        1.31841       -1.02891
F         -1.49155       -2.98604        0.34682
C          5.33086       -0.26151       -0.04205
O          5.99267       -1.27546        0.11512
O          5.92744        0.93827       -0.20711
H          2.08731        3.25653       -0.75500
H          6.89333        0.80764       -0.15786
