27
id_2146_cb.log	Energy: -697892.6319263
C          0.00020       -2.04392       -0.65789
H         -0.76403       -2.16140        0.11858
H          0.57626       -2.97017       -0.72407
H         -0.52743       -1.89258       -1.60622
C          0.90369       -0.88207       -0.35267
C          2.27707       -1.04424       -0.20232
H          2.71345       -2.03393       -0.30646
C          3.08853        0.05468        0.07945
C          2.55535        1.32564        0.21667
H          3.19390        2.17537        0.43622
C          1.17715        1.50520        0.06829
H          0.76379        2.50141        0.17538
C          0.36007        0.41070       -0.21410
O         -0.98924        0.49225       -0.37932
C         -1.61076        1.77418       -0.25869
H         -1.41120        2.17663        0.74331
H         -1.18345        2.45535       -1.00453
C         -3.10015        1.59633       -0.47679
H         -3.55327        2.59233       -0.42246
H         -3.28110        1.21298       -1.48725
C         -3.75257        0.68339        0.56240
H         -4.84339        0.76606        0.47473
H         -3.48111        1.00930        1.57198
C         -3.42058       -0.80254        0.40514
O         -3.09961       -1.44868        1.44576
O         -3.53113       -1.31411       -0.74637
Cl         4.81703       -0.18419        0.26196
