45
id_2033_ca.log	Energy: -591223.3869963
C          4.77500        1.83292       -0.45330
H          5.06411        2.48852        0.36752
H          4.65899        2.40284       -1.37467
H          5.51800        1.04765       -0.58678
N          3.46374        1.21764       -0.11783
C          3.50791        0.34994        1.12206
C          4.19895       -0.92066        0.60248
H          5.27866       -0.85615        0.74723
H          3.83905       -1.79093        1.15542
C          3.84416       -0.98775       -0.90693
H          3.29302       -1.89427       -1.16647
H          4.74559       -0.95779       -1.52140
C          2.96901        0.24795       -1.17011
C          1.48647        0.00554       -0.89810
H          1.08638       -0.64724       -1.67847
H          0.94195        0.95734       -0.93673
C          1.28493       -0.62603        0.48104
H          1.57168       -1.68101        0.46128
C          2.06398        0.11899        1.56080
H          1.58175        1.08392        1.75673
H          2.06347       -0.45487        2.49119
O         -0.10313       -0.54574        0.85044
C         -0.93841       -1.43928        0.29925
O         -0.56994       -2.34009       -0.42374
C         -2.37358       -1.16914        0.70806
C         -3.32093       -2.21023        0.10088
H         -4.31026       -2.08546        0.55622
H         -2.95720       -3.21357        0.33473
O         -3.39714       -2.12653       -1.31159
H         -3.86208       -1.30361       -1.53321
C         -2.78588        0.24358        0.34087
C         -3.57897        0.99183        1.21309
H         -3.85670        0.57021        2.17577
C         -4.00842        2.26893        0.85872
H         -4.62081        2.84195        1.54817
C         -3.64892        2.81118       -0.37380
H         -3.97991        3.80788       -0.64841
C         -2.86033        2.06965       -1.25175
H         -2.57619        2.48500       -2.21370
C         -2.43370        0.79136       -0.89827
H         -1.81784        0.21806       -1.58899
H          4.07271        0.88054        1.88913
H          3.12324        0.70088       -2.15003
H         -2.41153       -1.27281        1.79939
H          2.78182        1.97574        0.01003
