22
id_2043_ca.log	Energy: -277180.4516184
C          2.84878        0.17805        0.27880
H          3.89194        0.31574        0.54543
C          2.20717       -1.02472        0.55702
H          2.74797       -1.83281        1.03977
C          0.86630       -1.20262        0.21568
H          0.38783       -2.15416        0.42334
C          0.15241       -0.17600       -0.40363
C          0.80634        1.02941       -0.68895
H          0.27187        1.83393       -1.18765
C          2.14448        1.20456       -0.35027
H          2.63830        2.14372       -0.57963
C         -1.31676       -0.34379       -0.76823
C         -2.18428        0.78837       -0.21717
H         -3.23616        0.57309       -0.40248
H         -1.92595        1.74653       -0.66643
N         -2.02150        0.94693        1.26214
H         -2.61985        1.70316        1.61297
H         -1.04989        1.17517        1.50813
O         -1.84211       -1.60889       -0.41277
H         -1.66182       -1.78789        0.52497
H         -1.42186       -0.28396       -1.85666
H         -2.28162        0.09057        1.76600
