42
id_2156_cb.log	Energy: -1330897.9250655
C         -2.77261       -0.65962        3.28231
H         -1.76888       -0.29248        3.48741
H         -3.43684       -0.45489        4.12397
H         -2.75446       -1.72959        3.06406
O         -3.21365        0.06286        2.12008
C         -4.40977       -0.26450        1.64820
O         -5.17584       -1.02894        2.20339
C         -4.75323        0.48012        0.39387
C         -5.86790        1.31857        0.43744
H         -6.44180        1.38876        1.35692
C         -6.22960        2.06638       -0.68132
H         -7.09284        2.72258       -0.63297
C         -5.48960        1.96689       -1.85752
H         -5.77147        2.54290       -2.73312
C         -4.39256        1.10950       -1.92087
H         -3.83179        0.99965       -2.84375
C         -4.02676        0.37512       -0.79694
S         -2.67011       -0.78226       -0.96390
O         -2.94053       -1.88299       -0.00971
O         -2.64774       -1.19795       -2.38488
N         -1.41424        0.14278       -0.56782
C         -0.20680       -0.47369       -0.59735
O          0.03883       -1.65913       -0.85257
N          0.80560        0.44983       -0.29454
H          0.50253        1.41438       -0.20998
C          2.15951        0.26292       -0.17788
N          2.86175        1.40297       -0.05639
C          4.16985        1.26126        0.05714
C          4.83948        0.04514        0.05793
H          5.91450       -0.04261        0.13992
C          3.98899       -1.04091       -0.05790
N          2.67111       -0.96764       -0.16296
O          4.56612       -2.27777       -0.05181
C          3.75104       -3.37417       -0.28340
H          3.01733       -3.22757       -1.07225
F          4.59055       -4.38136       -0.59259
F          3.12934       -3.72483        0.86835
O          4.94241        2.37818        0.18810
C          4.33447        3.61403        0.04610
H          3.62053        3.66885       -0.77223
F          3.73354        3.95945        1.21029
F          5.34340        4.48609       -0.14307
