27
id_2175_cb.log	Energy: -386227.8745030
C         -0.34324        1.49765       -0.20774
H          0.03894        2.50908       -0.32803
C         -1.72056        1.28328       -0.14665
H         -2.40279        2.12514       -0.21815
C         -2.23312       -0.00717        0.00244
C         -1.33569       -1.07889        0.09145
H         -1.72058       -2.08765        0.20642
C          0.03671       -0.86153        0.03324
H          0.71725       -1.70861        0.10407
C          0.55802        0.43215       -0.11852
C          2.04963        0.66211       -0.16380
H          2.21639        1.72301       -0.38156
C          2.80745       -0.19097       -1.23005
H          2.14126       -0.90053       -1.73038
H          3.21331        0.46910       -2.00349
C          3.94643       -0.90582       -0.47681
H          3.61516       -1.90079       -0.15353
H          4.84156       -1.03799       -1.09230
C          4.18133       -0.03225        0.75960
H          4.73504        0.87415        0.48112
H          4.74183       -0.54213        1.54963
C          2.75542        0.33293        1.17411
H          2.69557        1.16389        1.88427
H          2.27886       -0.54066        1.63807
C         -3.73058       -0.24716        0.06277
O         -4.12764       -1.44292        0.15910
O         -4.49017        0.76142        0.01136
