36
id_21_cb.log	Energy: -551052.0200714
C         -2.67038        2.37019        1.06149
H         -3.47938        3.09436        0.96499
H         -2.31706        2.34987        2.09824
H         -3.03761        1.37514        0.78554
O         -1.64459        2.80801        0.18254
C         -0.49491        2.05957        0.14908
C          0.54849        2.55432       -0.62960
H          0.41919        3.49710       -1.15136
C          1.74215        1.84577       -0.73441
H          2.54306        2.24936       -1.34289
C          1.89129        0.62935       -0.06657
C          0.84753        0.12830        0.72202
C         -0.33632        0.85248        0.83232
H         -1.13051        0.45441        1.45203
C          0.98075       -1.23842        1.37246
C          0.91644       -2.36205        0.30942
H          0.62383       -3.28555        0.81879
H          1.90247       -2.51084       -0.12896
N          0.00555       -2.09819       -0.79761
H          0.41403       -1.85935       -1.69299
C         -1.30038       -1.85952       -0.62586
O         -1.86424       -1.96452        0.47790
C         -2.09609       -1.45790       -1.85614
H         -2.64611       -2.34520       -2.18642
H         -1.42321       -1.17118       -2.66722
N         -3.04370       -0.37819       -1.60244
H         -2.51429        0.44159       -1.30052
H         -3.59737       -0.64395       -0.78753
O          0.02554       -1.44744        2.39749
H         -0.80417       -1.69359        1.93800
O          3.01909       -0.14764       -0.13061
C          4.11367        0.35932       -0.87953
H          4.90973       -0.37935       -0.78672
H          4.45491        1.31889       -0.47668
H          3.84738        0.47959       -1.93499
H          1.96218       -1.31241        1.85223
