14
id_298_cb.log	Energy: -193868.5227924
C         -1.21057        1.73069       -0.00689
H         -2.14877        2.27561       -0.00534
C          0.00000        2.44180       -0.01003
C          1.21057        1.73069       -0.00689
H          2.14877        2.27561       -0.00534
C          1.18578        0.34476       -0.00577
C         -0.00000       -0.38548       -0.00605
H         -0.00000       -1.46794       -0.00448
C         -1.18578        0.34476       -0.00577
I         -3.03154       -0.71354        0.00196
I          3.03154       -0.71354        0.00196
N         -0.00000        3.82657       -0.07559
H          0.83917        4.26154        0.29228
H         -0.83917        4.26154        0.29227
