22
id_2392_ca.log	Energy: -588455.3932300
C          2.85555        1.22483       -0.09150
H          3.39928        2.15759        0.02023
C          1.48570        1.22237       -0.33000
H          0.92673        2.14735       -0.41467
C          0.83537        0.00372       -0.46460
C          1.49568       -1.21296       -0.36482
H          0.94591       -2.14036       -0.47788
C          2.86570       -1.21026       -0.12526
H          3.41731       -2.14115       -0.04039
C          3.51447        0.00838        0.00680
N          4.96503        0.01188        0.23476
H          5.26634       -0.82110        0.75747
H          5.25981        0.83862        0.77090
O         -0.53765        0.00625       -0.75438
C         -1.35758       -0.03794        0.32622
C         -2.80876        0.02673       -0.16248
F         -3.01517        1.15850       -0.82819
F         -3.06829       -1.00226       -0.96275
F         -3.63170       -0.01795        0.88121
F         -1.19452       -1.16775        1.03965
F         -1.14261        0.99121        1.16613
H          5.48456        0.02111       -0.65450
