20
id_2023_ca.log	Energy: -242330.5316635
C          3.17818       -0.25160        0.17731
H          3.79681       -1.11210       -0.09686
H          3.20810       -0.14893        1.26808
H          3.63607        0.64484       -0.25618
C          1.74236       -0.41806       -0.31227
H          1.31736       -1.33812        0.11251
H          1.73220       -0.54171       -1.40303
C          0.86706        0.77480        0.06666
H          1.30230        1.69598       -0.34109
H          0.84256        0.88751        1.15917
C         -0.57381        0.67188       -0.45232
C         -1.40284        1.89734       -0.05584
H         -2.43301        1.81836       -0.41706
H         -0.95419        2.79678       -0.48765
H         -1.42330        2.01011        1.03291
C         -1.22104       -0.56454        0.12187
O         -1.38892       -0.76236        1.31326
O         -1.60895       -1.45276       -0.80574
H         -2.02116       -2.22025       -0.36137
H         -0.56008        0.56959       -1.54199
