20
id_2055_ca.log	Energy: -416918.5296350
C         -1.32942        2.33196       -0.13386
H         -1.80306        2.57474        0.82182
H         -2.11814        2.29611       -0.88997
H         -0.63343        3.13444       -0.38785
C         -0.58665        1.02496       -0.04970
C          0.81024        1.04931       -0.06070
H          1.33475        1.99599       -0.12805
C          1.52280       -0.13875        0.01224
C          0.91685       -1.38521        0.08471
H          1.50325       -2.29422        0.13868
C         -0.47034       -1.41778        0.07864
H         -0.98025       -2.37295        0.13027
C         -1.21617       -0.23421        0.02111
C         -2.70585       -0.33772        0.05435
O         -3.45331        0.53782        0.44516
O         -3.15267       -1.52069       -0.38666
H         -4.12669       -1.53818       -0.31128
N          2.99087       -0.07306        0.00647
O          3.52198        1.02468       -0.05264
O          3.61385       -1.12181        0.06168
