19
id_2203_ca.log	Energy: -520536.0484326
C          1.32568       -1.58217       -0.01164
H          2.02191       -2.41267       -0.02360
C         -0.04825       -1.80415       -0.00348
H         -0.43329       -2.81827       -0.01954
C         -0.93848       -0.73299        0.00980
C         -0.42064        0.56374        0.02887
C          0.93830        0.82580        0.01663
H          1.31647        1.84087        0.04426
C          1.78380       -0.27233       -0.00508
N          3.23354       -0.02784       -0.01099
O          3.97366       -0.99608       -0.02485
O          3.61789        1.12889       -0.00326
N         -1.32793        1.71237        0.12618
O         -0.90833        2.80515       -0.20832
O         -2.45112        1.50503        0.55557
C         -2.40780       -1.05459       -0.02078
O         -2.95980       -1.66637        0.86606
O         -2.98562       -0.67006       -1.15459
H         -3.93351       -0.91402       -1.13813
