24
id_2174_cb.log	Energy: -431897.9876089
C          4.17858       -0.66146       -0.32049
H          4.87447       -0.04958       -0.89152
H          4.13798       -1.67402       -0.72658
H          4.46802       -0.68971        0.73189
O          2.90119       -0.02130       -0.46328
C          1.87951       -0.59451        0.18259
O          2.01009       -1.62833        0.81803
C          0.61261        0.18030        0.06142
C          0.69787        1.55278        0.06520
H          1.67193        2.03342        0.10829
C         -0.46230        2.41022        0.04882
C         -1.70131        1.75842        0.01833
H         -2.60987        2.35833        0.00912
C         -1.81862        0.34839       -0.01200
C         -0.65721       -0.48628        0.01132
C         -0.82036       -1.89661       -0.06641
H          0.05599       -2.53502       -0.07933
C         -2.07272       -2.46334       -0.13364
H         -2.17696       -3.54266       -0.19443
C         -3.22710       -1.64115       -0.12893
H         -4.21298       -2.09553       -0.17759
C         -3.10100       -0.27520       -0.07380
H         -3.98283        0.36156       -0.08362
O         -0.32047        3.70512        0.06890
