30
id_2127_ca.log	Energy: -992783.1978786
C         -0.62214        2.55147        0.10398
H         -0.59764        2.48727        1.19790
H         -0.44101        1.54734       -0.29840
H         -1.63318        2.84623       -0.19710
C          0.41103        3.54928       -0.41436
H          0.19312        4.55246       -0.02958
H          0.35576        3.60904       -1.50863
C          1.84445        3.20675       -0.01105
H          1.94917        3.18585        1.07583
H          2.53949        3.95309       -0.40232
N          2.26759        1.90219       -0.51767
H          2.38936        1.81235       -1.52183
C          2.10981        0.78536        0.20870
O          1.78276        0.74647        1.39433
N          2.39458       -0.41416       -0.48705
H          2.50051       -0.34758       -1.50177
S          1.56047       -1.80762       -0.05606
O          1.97578       -2.21337        1.27837
O          1.79080       -2.70645       -1.18456
C         -0.14680       -1.33150       -0.01573
C         -0.81190       -1.17126       -1.23094
H         -0.31856       -1.39288       -2.17307
C         -2.12476       -0.71459       -1.22147
H         -2.66728       -0.57827       -2.15092
C         -2.72811       -0.42690        0.00163
C         -2.06655       -0.59674        1.21469
H         -2.56280       -0.36754        2.15177
C         -0.75235       -1.05487        1.20666
H         -0.21022       -1.18467        2.13731
Cl        -4.36296        0.17576        0.01136
