25
id_2183_ca.log	Energy: -408896.9315842
C         -4.07055       -1.15545        0.11171
H         -4.98684       -1.73798        0.14004
C         -2.92983       -1.61979        0.76684
H         -2.95844       -2.55708        1.31419
C         -1.74844       -0.88171        0.72013
H         -0.86498       -1.24260        1.23906
C         -1.71220        0.33752        0.03243
C         -2.86579        0.80933       -0.60667
H         -2.83225        1.75798       -1.13491
C         -4.03721        0.05882       -0.57785
H         -4.92450        0.41989       -1.08919
C         -0.48824        1.19399        0.01636
O         -0.60578        2.41984        0.02689
C          0.85672        0.56846       -0.00857
C          1.94581        1.28751        0.50871
H          1.77647        2.26516        0.95057
C          3.22508        0.75639        0.48133
H          4.06924        1.29740        0.89773
C          3.43311       -0.50349       -0.09168
C          2.36588       -1.22358       -0.63431
H          2.54649       -2.19324       -1.09067
C          1.08368       -0.69049       -0.58106
H          0.26191       -1.25315       -1.01389
O          4.70920       -0.98392       -0.09427
H          4.73750       -1.86870       -0.49809
