18
id_2022_cb.log	Energy: -1925699.1119203
C         -1.60273        2.82889        0.09132
H         -1.66621        3.91182        0.13291
C         -2.75924        2.06101       -0.04631
H         -3.73294        2.53556       -0.11879
C         -2.66749        0.67216       -0.08667
H         -3.56079        0.06597       -0.19680
C         -1.41892        0.06582        0.01000
C         -0.23730        0.80671        0.14871
C         -0.36453        2.20527        0.19184
H          0.53141        2.80467        0.32547
C          1.08530        0.16703        0.25335
H          1.13058       -0.81133        0.72693
C          2.22434        0.70868       -0.19409
H          2.23331        1.66940       -0.70495
C          3.56256        0.03467       -0.03500
O          3.61347       -1.09713        0.52314
O          4.56056        0.67035       -0.48447
Br        -1.35027       -1.83038       -0.07066
