31
id_2176_ca.log	Energy: -340814.0423787
C          4.82850       -0.70676       -0.98878
H          5.87604       -0.77478       -0.67717
H          4.75221        0.08893       -1.73895
H          4.56085       -1.65148       -1.47606
C          3.90789       -0.42631        0.19587
H          4.20862        0.50993        0.68489
H          4.01766       -1.22041        0.94655
C          2.44136       -0.32554       -0.21603
H          2.13303       -1.25781       -0.70999
H          2.32469        0.47577       -0.95915
C          1.50880       -0.06241        0.97410
H          1.84725        0.83760        1.50218
H          1.59776       -0.89724        1.68048
C          0.06490        0.08669        0.55672
C         -0.76404       -1.03774        0.51148
H         -0.35682       -2.00120        0.81720
C         -2.09716       -0.98815        0.09484
C         -2.59633        0.26116       -0.28799
C         -1.79398        1.39912       -0.25446
H         -2.22426        2.35056       -0.55898
C         -0.46305        1.33077        0.16324
C          0.37192        2.58667        0.20573
H          1.30545        2.47193       -0.35558
H          0.64563        2.84503        1.23555
H         -0.17849        3.43095       -0.21817
O         -3.89865        0.42797       -0.71417
H         -4.37521       -0.41781       -0.68130
C         -2.96840       -2.21597        0.05783
H         -2.40556       -3.09256        0.38789
H         -3.33973       -2.41769       -0.95466
H         -3.84228       -2.11274        0.71330
