17
id_279_ca.log	Energy: -321988.1087774
C          0.49401        2.38053       -0.00372
H         -0.29196        3.13515       -0.06960
H          1.17318        2.49473       -0.85248
H          1.06812        2.54307        0.91309
C         -0.11691        1.02862       -0.00322
C          0.34361       -0.25485       -0.00133
N         -0.72841       -1.14441        0.00091
C         -1.77703       -0.39213        0.00114
O         -1.47565        0.94177       -0.00135
C         -3.21086       -0.76041        0.00307
H         -3.70740       -0.35476       -0.88324
H         -3.70531       -0.35390        0.89015
H         -3.30503       -1.84670        0.00371
C          1.72869       -0.71878       -0.00035
O          2.06642       -1.89031       -0.00740
O          2.60734        0.29431        0.01005
H          3.51336       -0.07077        0.00807
