33
id_2340_cb.log	Energy: -588876.6869856
C         -4.08443        0.75587       -0.05722
H         -5.09751        1.07301        0.20542
H         -3.79518       -0.03793        0.64023
H         -4.11099        0.32770       -1.06479
C         -3.11151        1.92825        0.01230
H         -3.07699        2.33454        1.02940
H         -3.44325        2.73815       -0.64724
C         -1.70688        1.54766       -0.41209
H         -1.02147        2.39594       -0.35058
H         -1.69842        1.15908       -1.43435
O         -1.18016        0.54451        0.49080
P         -0.94973       -0.98108        0.04398
O         -1.66246       -1.34354       -1.21703
C         -1.33455       -1.91756        1.51179
H         -0.77596       -1.51773        2.36139
H         -1.06537       -2.96470        1.35618
H         -2.40630       -1.84241        1.71084
O          0.64630       -1.14757       -0.04881
C          1.32782       -0.51205       -1.15642
H          1.18225       -1.13701       -2.04075
H          0.89396        0.47713       -1.34508
C          2.80334       -0.39108       -0.83360
H          3.35218       -0.37071       -1.78050
H          3.11206       -1.30899       -0.29925
N          3.16224        0.81232       -0.08503
C          4.60124        0.78470        0.15385
H          4.90570        1.68916        0.68718
H          5.13761        0.74743       -0.79863
H          4.90724       -0.08915        0.75517
C          2.47245        0.85435        1.20130
H          1.39549        0.97016        1.05851
H          2.83273        1.71437        1.77235
H          2.64811       -0.05624        1.80092
