23
id_2419_cb.log	Energy: -348335.6443371
C         -3.48525       -0.96455        0.00000
H         -3.96399       -0.52687        0.88262
H         -3.69733       -2.03736        0.00000
H         -3.96399       -0.52687       -0.88262
C         -1.99699       -0.72618        0.00000
C         -1.12545       -1.84448        0.00000
H         -1.56278       -2.84277        0.00000
N          0.18777       -1.78080        0.00000
C          0.77300       -0.55070        0.00000
C          0.00000        0.64759        0.00000
C         -1.42869        0.53376        0.00000
C         -2.26925        1.78141        0.00000
H         -2.05309        2.39676        0.88101
H         -3.33574        1.55260        0.00000
H         -2.05309        2.39676       -0.88101
C          0.65313        1.91012        0.00000
H          0.07449        2.82732        0.00000
C          2.03322        1.95216        0.00000
H          2.53709        2.91677        0.00000
C          2.81234        0.78318        0.00000
H          3.89779        0.85305        0.00000
C          2.23640       -0.50096        0.00000
O          2.94893       -1.58399        0.00000
