40
id_268_ca.log	Energy: -518755.2566248
C         -6.26806        0.28256        1.20891
H         -5.85954        0.41875        2.21373
H         -7.27807       -0.12574        1.29738
H         -6.32959        1.25672        0.71666
C         -5.41192       -0.66838        0.40749
H         -5.79440       -0.81017       -0.60660
H         -5.32508       -1.64676        0.88708
O         -4.09393       -0.08500        0.31959
C         -3.18645       -0.78439       -0.36169
O         -3.42785       -1.85715       -0.88434
C         -1.85715       -0.11698       -0.41722
C         -0.82858       -0.75334       -1.11339
H         -1.01779       -1.70957       -1.58975
C          0.42655       -0.16474       -1.19727
H          1.20579       -0.67651       -1.75412
C          0.67508        1.06890       -0.58233
C         -0.36277        1.70026        0.11013
H         -0.19357        2.66387        0.57844
C         -1.62071        1.11490        0.19459
H         -2.41615        1.61865        0.73237
C          2.02964        1.75655       -0.69735
C          3.22263        0.80286       -0.74987
H          4.14278        1.38461       -0.82233
H          3.15897        0.12970       -1.60335
N          3.33274       -0.02459        0.48705
H          2.49048       -0.60856        0.59500
C          4.54332       -0.92961        0.55480
H          5.40005       -0.26584        0.41435
C          4.46864       -1.96582       -0.55290
H          4.56141       -1.52381       -1.54712
H          3.52549       -2.52081       -0.49233
H          5.29060       -2.67378       -0.42152
C          4.57094       -1.55635        1.93765
H          4.58469       -0.79195        2.72037
H          5.47175       -2.16657        2.03482
H          3.69850       -2.20177        2.08430
O          2.22564        2.74184        0.30186
H          1.90266        2.40659        1.15485
H          2.05549        2.29704       -1.65057
H          3.35860        0.60207        1.30273
