30
id_270_cb.log	Energy: -357593.0752508
C          4.61045       -0.71791       -1.54264
H          3.85129       -0.76187       -2.33348
H          5.46877       -1.31834       -1.86085
H          4.94451        0.31933       -1.44449
C          4.03311       -1.25657       -0.23350
H          4.79018       -1.15034        0.55395
C          3.66925       -2.72906       -0.37229
H          2.90064       -2.85757       -1.14420
H          3.28068       -3.12864        0.56878
H          4.54358       -3.31714       -0.66604
N          2.84693       -0.51867        0.22820
H          2.12052       -0.62569       -0.48347
C          3.07748        0.90967        0.43512
H          3.99434        1.02155        1.02487
H          3.19904        1.48708       -0.49149
C          1.90686        1.47774        1.24895
C          0.64097        1.52150        0.40722
C          0.50878        2.48848       -0.59331
H          1.29534        3.22633       -0.73160
C         -0.62045        2.51470       -1.40397
H         -0.71992        3.27136       -2.17593
C         -1.63728        1.57413       -1.23189
H         -2.51852        1.59408       -1.86321
C         -1.49537        0.61794       -0.23346
C         -0.37250        0.58011        0.58882
H         -0.28056       -0.16409        1.37232
I         -3.03454       -0.82544        0.04916
O          1.74770        0.70089        2.42100
H          1.96745       -0.20720        2.13097
H          2.15532        2.49854        1.55878
