14
id_2366_ca.log	Energy: -767509.4376058
C         -0.39520       -0.89694        0.00000
H         -0.59140       -1.96448        0.00000
C         -1.46533        0.02164        0.00000
C         -1.20173        1.35885       -0.00000
H         -1.95511        2.13613       -0.00000
N          0.08937        1.77873        0.00000
C          1.16621        0.96199        0.00000
C          0.89236       -0.43583        0.00000
Cl         2.23197       -1.52550       -0.00000
N          2.38502        1.48011       -0.00003
H          3.20450        0.88579        0.00008
H          2.52607        2.48508        0.00007
Cl        -3.09884       -0.54505       -0.00000
H          0.25412        2.78660        0.00000
