25
id_2222_ca.log	Energy: -254796.4416329
C         -2.82185       -0.79151        0.36408
H         -3.68824       -0.19544        0.05976
H         -3.02120       -1.83769        0.10982
H         -2.72838       -0.71989        1.45408
C         -1.55078       -0.28989       -0.31179
C         -1.28027        1.18022        0.02230
H         -1.20089        1.28718        1.11232
H         -2.12745        1.79554       -0.29959
C          0.00551        1.68151       -0.63621
H         -0.09642        1.65522       -1.72829
H          0.21402        2.71936       -0.35429
C          1.20631        0.82418       -0.24541
C          0.92437       -0.64003       -0.56542
C         -0.34867       -1.14965        0.09682
H         -0.22952       -1.11302        1.18793
H         -0.51213       -2.19636       -0.18447
N          2.09342       -1.44570       -0.08374
H          1.92547       -2.45275       -0.19034
H          2.94983       -1.20802       -0.59814
O          1.46547        0.87164        1.15481
H          1.76627        1.76869        1.37081
H         -1.67041       -0.37448       -1.40187
H          2.09871        1.14598       -0.79882
H          0.87815       -0.77315       -1.64849
H          2.25677       -1.24334        0.91099
