27
id_2383_cb.log	Energy: -528860.7850522
C          2.83105       -1.04445        1.07049
H          1.96707       -1.53940        1.52558
H          3.50360       -0.72632        1.87572
H          3.35968       -1.76901        0.44339
C          2.39448        0.17019        0.25842
C          3.58480        0.79772       -0.46488
H          4.08143        0.07549       -1.12167
H          4.31496        1.13806        0.27721
H          3.27943        1.66351       -1.06201
C          1.70046        1.19239        1.15198
H          0.79410        0.77021        1.59933
H          1.42890        2.09122        0.58954
H          2.37562        1.48446        1.96511
S          1.26108       -0.36428       -1.10140
N         -0.03431       -1.04638       -0.23732
H         -0.04924       -2.06056       -0.23147
C         -1.29772       -0.44956       -0.13296
C         -2.39495       -1.26271        0.19123
H         -2.24406       -2.33205        0.31647
C         -3.65873       -0.70753        0.35251
H         -4.49315       -1.35559        0.60421
C         -3.86072        0.66275        0.18703
H         -4.84882        1.09358        0.31017
C         -2.77219        1.46784       -0.14168
H         -2.90875        2.53691       -0.27684
C         -1.49920        0.92621       -0.30092
H         -0.66155        1.56549       -0.55838
