21
id_2333_cb.log	Energy: -1867033.3014187
C         -0.71650       -0.96708        0.14805
H         -1.32022       -1.87078        0.15060
C          0.66400       -1.09223        0.02866
H          1.12007       -2.07233       -0.06118
C          1.45060        0.05400        0.02854
C          0.88082        1.31586        0.14428
H          1.50369        2.20384        0.14423
C         -0.50163        1.42331        0.26024
H         -0.95045        2.40866        0.35111
C         -1.32447        0.29040        0.26450
C         -2.79535        0.44827        0.36821
C         -3.65754       -0.61431        1.02371
H         -4.49646       -0.25854        1.61563
H         -3.16081       -1.49654        1.41661
C         -3.73342       -0.42536       -0.44590
N         -4.94721        0.08284       -1.03682
H         -4.69962        0.67311       -1.83049
H         -5.39561        0.70422       -0.36405
Br         3.33723       -0.10756       -0.12959
H         -3.13214        1.47262        0.50688
H         -3.23997       -1.17661       -1.05786
