26
id_2256_cb.log	Energy: -396409.2623763
N         -0.56379        2.51636        0.04342
H         -1.54580        2.80306        0.09857
C         -0.49053        1.23707        0.02385
C         -1.69947        0.35742        0.03327
C         -1.74517       -0.79549        0.82586
H         -0.87740       -1.07920        1.41421
C         -2.90225       -1.56772        0.87727
H         -2.93137       -2.45237        1.50563
C         -4.01808       -1.20734        0.12348
H         -4.91648       -1.81578        0.15659
C         -3.97638       -0.06663       -0.67662
H         -4.83927        0.21313       -1.27274
C         -2.82551        0.71506       -0.71663
H         -2.79183        1.59909       -1.34798
C          0.85284        0.59888       -0.00399
C          1.05903       -0.65658       -0.58682
H          0.22317       -1.20066       -1.01580
C          2.32868       -1.21927       -0.64685
H          2.48355       -2.19014       -1.10935
C          3.41469       -0.53008       -0.10680
C          3.22872        0.72439        0.48190
H          4.08416        1.24297        0.90269
C          1.95939        1.27881        0.52418
H          1.81079        2.25131        0.98207
O          4.68187       -1.03591       -0.12274
H          4.67631       -1.90984       -0.54851
