11
id_2138_ca.log	Energy: -745119.1874220
C         -0.28158        0.50371        1.74135
H         -0.06503       -0.36751        2.36649
H         -1.27855        0.88098        1.97728
H          0.45817        1.28140        1.93901
C         -0.22293        0.09498        0.28195
C          1.14806       -0.48446       -0.11789
O          1.30876       -1.49987       -0.74940
O          2.12398        0.29891        0.32634
H          2.98863       -0.06494        0.04871
Cl        -1.48844       -1.11091       -0.07040
Cl        -0.47782        1.53399       -0.77545
