20
id_2013_cb.log	Energy: -323677.5931439
C         -3.38546       -1.09750        0.00000
H         -3.72406       -1.65288        0.88185
H         -3.72406       -1.65288       -0.88185
H         -3.86013       -0.11408        0.00000
C         -1.88763       -0.96414        0.00000
C         -1.08696       -2.14174        0.00000
H         -1.56957       -3.11535        0.00000
C          0.27506       -2.02196        0.00000
H          0.91526       -2.90180        0.00000
C          0.87634       -0.73265        0.00000
C          2.28418       -0.55950        0.00000
H          2.93067       -1.43291        0.00000
C          2.79224        0.72307        0.00000
H          3.86941        0.87673        0.00000
C          1.94726        1.84813        0.00000
H          2.37899        2.84663        0.00000
C          0.54232        1.74643        0.00000
C          0.00000        0.38860        0.00000
N         -1.35949        0.24277        0.00000
O         -0.23054        2.78936        0.00000
