7
id_2061_cb.log	Energy: -205673.7077376
C          0.63045       -0.75954        0.00000
H          1.24663       -0.88633        0.89370
H          1.24663       -0.88633       -0.89370
C          0.00000        0.63077        0.00000
O          0.83945        1.57294        0.00000
O         -1.25040        0.73653        0.00000
F         -0.33204       -1.77005        0.00000
