23
id_290_cb.log	Energy: -5177982.0599864
C          3.32082        0.51633        1.49065
H          2.76633       -0.12413        2.18404
H          3.74967        1.34201        2.06849
H          4.14923       -0.06338        1.08208
C          2.41134        1.11942        0.40214
H          2.10918        2.07624        0.82017
C          3.17920        1.45203       -0.88390
H          4.02906        2.09775       -0.63599
H          2.54555        1.98579       -1.60018
H          3.56498        0.55093       -1.36703
C          1.07840        0.39868        0.13223
C         -0.06873        1.21477        0.03739
C         -1.41277        0.87375       -0.05838
H         -2.08853        1.71361       -0.17793
C         -2.04529       -0.35116        0.02305
C         -1.53154       -1.66481        0.21177
O         -2.27773       -2.64566        0.39813
C         -0.04998       -1.97028        0.09192
C          1.01557       -0.99690        0.01038
Br         2.66968       -1.90898       -0.30321
O          0.20625       -3.19067        0.06411
Br        -3.94260       -0.26349       -0.06571
Br         0.14047        3.13136       -0.05437
