26
id_2365_cb.log	Energy: -231965.6651676
C         -2.25086       -0.89575       -0.81676
H         -2.38340       -1.94104       -0.51336
H         -3.20216       -0.37507       -0.65775
H         -2.03008       -0.87778       -1.89015
C         -1.13379       -0.22942       -0.01268
C         -0.96831        1.22881       -0.47104
H         -1.86000        1.80700       -0.19799
H         -0.89974        1.24070       -1.56842
C          0.29570        1.86934        0.10237
H          0.20369        1.99861        1.18686
H          0.44616        2.86486       -0.32867
C          1.51158        1.00306       -0.20045
H          2.41447        1.43861        0.24076
H          1.66887        0.96782       -1.29748
N          1.34734       -0.35283        0.32748
C          0.17663       -0.97622       -0.29281
H          0.09733       -2.00655        0.07633
H          0.31988       -1.03548       -1.39155
C          2.52946       -1.13847        0.00321
H          3.41570       -0.68551        0.45749
H          2.69885       -1.20524       -1.08660
H          2.42257       -2.15505        0.39298
C         -1.48976       -0.29643        1.47523
H         -0.72550        0.16567        2.10501
H         -1.60225       -1.33908        1.79513
H         -2.43960        0.21780        1.66259
