18
id_2018_ca.log	Energy: -514536.6118344
C          3.02055       -0.00251       -0.51785
H          4.00558        0.00005       -0.97562
C          2.37930       -1.21139       -0.24517
H          2.86342       -2.15258       -0.48915
C          1.11695       -1.21456        0.34737
H          0.62082       -2.15574        0.57040
C          0.48422       -0.00865        0.67011
C          1.13415        1.20040        0.39651
H          0.64889        2.13860        0.65352
C          2.39711        1.20352       -0.19308
H          2.89550        2.14695       -0.39633
C         -0.88250       -0.01431        1.28093
H         -1.09465        0.88510        1.86655
H         -1.05332       -0.89647        1.90602
S         -2.21308       -0.10601        0.03003
O         -1.84975       -1.24734       -0.87421
O         -1.75728        1.29200       -0.72950
H         -2.51950        1.65778       -1.21917
