7
id_2011_cb.log	Energy: -369322.4046633
C         -1.53266       -0.00000        0.14649
H         -1.52498       -0.00000        1.24132
H         -2.03136       -0.89588       -0.23275
H         -2.03136        0.89588       -0.23274
S          0.19210       -0.00000       -0.40590
O          0.73188       -1.26176        0.30248
O          0.73188        1.26176        0.30248
