11
id_2205_cb.log	Energy: -685427.2150281
C         -2.01554        0.05962        0.48112
H         -1.87473        1.13693        0.37898
H         -2.40668       -0.12068        1.48693
C         -0.70391       -0.66217        0.34428
H         -0.73334       -1.74697        0.42748
C          0.47758       -0.10977        0.09812
Cl         0.74210        1.59964       -0.07107
Cl         1.92961       -1.05166       -0.08353
N         -3.02354       -0.37944       -0.48770
H         -3.16007       -1.38335       -0.37114
H         -2.62823       -0.27162       -1.42136
