28
id_2383_ca.log	Energy: -529132.7044094
C          2.92343       -1.10941        0.97282
H          2.32851       -1.00346        1.88590
H          3.97775       -1.07158        1.26755
H          2.72395       -2.08628        0.52380
C          2.66579        0.02246       -0.01658
C          3.54467       -0.13682       -1.26169
H          3.41290       -1.11819       -1.72715
H          4.58878       -0.04559       -0.94578
H          3.34750        0.64511       -2.00220
C          2.88224        1.39033        0.62223
H          2.24008        1.54631        1.49503
H          2.70820        2.19501       -0.09687
H          3.92024        1.44947        0.96741
S          0.96874       -0.10070       -0.74042
N         -0.05213       -0.05640        0.74892
H          0.13982       -0.88541        1.32963
C         -1.47831       -0.01918        0.39409
C         -2.14609       -1.22237        0.21508
H         -1.62933       -2.16629        0.36399
C         -3.48931       -1.17955       -0.14846
H         -4.03481       -2.10659       -0.28739
C         -4.12666        0.04652       -0.33074
H         -5.17361        0.07283       -0.61416
C         -3.42830        1.23958       -0.14995
H         -3.92703        2.19238       -0.29043
C         -2.08486        1.21589        0.21316
H         -1.52133        2.13298        0.35902
H          0.18783        0.77054        1.31614
