11
id_2416_cb.log	Energy: -108659.3304247
C          0.90241        0.76362       -0.17748
H          0.67728        1.21131       -1.14123
H          1.60971        1.31562        0.43327
C          0.92303       -0.74510       -0.10808
H          1.64247       -1.22341        0.54788
H          0.71488       -1.28669       -1.02693
C         -0.20883        0.01356        0.49966
H         -0.22918        0.06138        1.58412
N         -1.52961       -0.11198       -0.08270
H         -1.41543       -0.28185       -1.08214
H         -1.99219        0.79506       -0.02069
