20
id_2431_ca.log	Energy: -242331.0329871
C         -2.55233       -0.52550       -0.28815
H         -3.43722       -1.07324        0.05001
H         -2.57414       -0.48943       -1.38315
H         -2.63755        0.50248        0.08450
C         -1.27343       -1.19381        0.20945
H         -1.23971       -2.23693       -0.12454
H         -1.25372       -1.20536        1.30625
C         -0.00001       -0.50438       -0.29989
H         -0.00001       -0.50743       -1.39592
C          1.27340       -1.19383        0.20945
H          1.25368       -1.20539        1.30625
H          1.23967       -2.23695       -0.12455
C          2.55232       -0.52554       -0.28813
H          3.43720       -1.07330        0.05002
H          2.63756        0.50243        0.08454
H          2.57413       -0.48945       -1.38314
C          0.00001        0.93408        0.15779
O         -0.00001        1.28487        1.32540
O          0.00005        1.82017       -0.84943
H          0.00006        2.72611       -0.48107
