37
id_2141_cb.log	Energy: -1440294.5063534
C          3.69765        3.11769        1.88425
H          4.05963        4.14810        1.86672
H          2.82890        3.02528        2.53772
H          4.49162        2.43426        2.18879
S          3.20973        2.72004        0.22751
O          2.11578        3.64797       -0.15055
O          4.41875        2.81051       -0.62789
N          2.69474        1.18296        0.40857
C          2.30958        0.56562       -0.71363
O          2.21296        1.02008       -1.86810
C          1.87182       -0.86514       -0.47582
C          0.50120       -1.10806       -0.43878
H         -0.18709       -0.28058       -0.58624
C          0.03497       -2.40113       -0.20734
C          0.91462       -3.46921       -0.01016
H          0.51937       -4.46473        0.16114
C          2.27626       -3.23481       -0.04405
H          2.98047       -4.04726        0.09355
C          2.74018       -1.94009       -0.28117
N          4.17921       -1.73784       -0.34791
O          4.90843       -2.58264        0.15583
O          4.60096       -0.73918       -0.91448
O         -1.29937       -2.71845       -0.17131
C         -2.22505       -1.69301       -0.19979
C         -2.89725       -1.42004       -1.38590
H         -2.64370       -1.98794       -2.27523
C         -3.87173       -0.43067       -1.40993
H         -4.40254       -0.20939       -2.33134
C         -4.15911        0.27623       -0.24200
C         -3.49351        0.01060        0.94981
H         -3.72078        0.55871        1.85793
C         -2.52194       -0.98399        0.96420
Cl        -1.67192       -1.34732        2.43323
C         -5.21290        1.34375       -0.29769
F         -5.42435        1.93061        0.89023
F         -4.88957        2.32307       -1.16680
F         -6.40000        0.85504       -0.71039
