16
id_2316_cb.log	Energy: -309063.6076504
C         -1.87743       -1.57293       -0.00000
H         -2.62891       -2.35955       -0.00000
C         -0.54258       -1.92001       -0.00000
H         -0.21054       -2.95306       -0.00000
C          0.41649       -0.87714        0.00000
C          0.00000        0.48624        0.00000
C          1.01812        1.44337        0.00000
H          0.78639        2.50402        0.00000
C          2.32624        1.00715        0.00000
H          3.16356        1.69595        0.00000
N          2.66366       -0.30382        0.00000
N          1.73968       -1.22029        0.00000
C         -1.41722        0.84805       -0.00000
C         -2.31550       -0.23287       -0.00000
H         -3.38049       -0.01439       -0.00000
O         -1.77527        2.08807       -0.00000
