8
id_2077_cb.log	Energy: -962089.7511924
C         -0.91624        0.00002        1.29608
H         -0.59886        0.88907        1.87943
H         -0.59885       -0.88901        1.87947
C          0.06697       -0.00000        0.08942
Cl        -0.16825        1.45301       -0.92799
Cl         1.75544        0.00001        0.70048
Cl        -0.16825       -1.45303       -0.92796
O         -2.22856        0.00001        0.94637
