23
id_2046_cb.log	Energy: -384728.0402225
C          3.95040        0.17135        0.35720
H          4.97965        0.45243        0.56076
C          3.60635       -1.20108        0.25368
H          4.37610       -1.95724        0.37902
C          2.30847       -1.57438       -0.00331
H          2.03909       -2.62503       -0.08353
C          1.29113       -0.59438       -0.16786
C         -0.06110       -0.95089       -0.43282
H         -0.31459       -2.00708       -0.50982
C         -1.03809        0.00443       -0.58855
C         -0.67885        1.37976       -0.48492
H         -1.45370        2.13354       -0.60928
C          0.61450        1.75893       -0.23145
H          0.87850        2.81127       -0.15502
C          1.63740        0.78285       -0.06421
C          2.98743        1.14000        0.20093
H          3.24289        2.19436        0.27850
C         -2.47159       -0.36852       -0.84240
H         -2.54619       -1.41906       -1.14576
H         -2.88307        0.22744       -1.66559
C         -3.41860       -0.18390        0.35800
O         -4.64308       -0.40499        0.12885
O         -2.94234        0.15554        1.47428
