21
id_2344_ca.log	Energy: -1843439.1314157
C         -3.82657       -0.39657        1.21325
H         -3.60727       -1.46669        1.15023
H         -4.91045       -0.25363        1.18162
H         -3.45176       -0.01891        2.16684
C         -3.15706        0.36471        0.08125
C         -1.65190        0.23790        0.05113
C         -0.86289        1.38699        0.09206
H         -1.33518        2.36408        0.13753
C          0.52665        1.29778        0.07834
H          1.13709        2.19316        0.11376
C          1.11593        0.04163        0.01396
C          0.35208       -1.12033       -0.03198
H          0.82947       -2.09265       -0.08147
C         -1.03420       -1.01478       -0.00858
H         -1.63084       -1.92334       -0.04004
Br         3.00765       -0.09344       -0.01351
N         -3.72185       -0.13638       -1.22602
H         -3.54917       -1.14305       -1.34242
H         -3.30151        0.35102       -2.02624
H         -3.42910        1.42047        0.12008
H         -4.73815        0.01070       -1.26150
