26
id_208_cb.log	Energy: -231970.5629788
C          2.56936       -1.19217       -0.04839
H          2.68232       -1.25996       -1.13753
H          3.48048       -0.74125        0.35698
H          2.47773       -2.20739        0.34878
C          1.34927       -0.35328        0.30260
C          1.50113        1.08352       -0.20443
H          1.68378        1.04634       -1.28927
H          2.38006        1.55000        0.25662
C          0.24181        1.90387        0.07100
H          0.12388        2.04032        1.15366
H          0.33405        2.90558       -0.36282
C         -0.98306        1.19393       -0.50648
H         -0.89555        1.17491       -1.60267
H         -1.90159        1.74399       -0.26657
C         -1.11000       -0.26073       -0.01547
N          0.14541       -1.01901       -0.22506
H          0.27848       -1.07600       -1.23916
C         -2.20071       -0.96619       -0.81698
H         -3.15518       -0.43963       -0.71307
H         -2.33386       -1.99617       -0.46971
H         -1.94165       -0.99242       -1.88220
C         -1.48585       -0.30055        1.46756
H         -1.55868       -1.33797        1.81023
H         -2.45768        0.18113        1.61887
H         -0.75811        0.21442        2.10109
H          1.25185       -0.32322        1.39573
