26
id_2435_ca.log	Energy: -291644.7325306
C         -3.80225       -1.01978        0.08660
H         -3.84418       -1.10832        1.17822
H         -3.79368       -2.03287       -0.33141
H         -4.72044       -0.52549       -0.24651
C         -2.56200       -0.24370       -0.34734
H         -2.61170        0.77741        0.05554
H         -2.54532       -0.14916       -1.44097
C         -1.27264       -0.91779        0.11860
H         -1.23889       -1.94794       -0.25785
H         -1.25795       -0.97513        1.21545
C         -0.00000       -0.20517       -0.35942
H         -0.00000       -0.15869       -1.45427
C          1.27263       -0.91779        0.11860
H          1.25793       -0.97515        1.21545
H          1.23888       -1.94794       -0.25785
C          2.56200       -0.24370       -0.34733
H          2.54531       -0.14915       -1.44096
H          2.61170        0.77740        0.05557
C          3.80224       -1.01979        0.08660
H          3.84417       -1.10836        1.17822
H          4.72043       -0.52550       -0.24650
H          3.79367       -2.03288       -0.33142
C          0.00000        1.21057        0.16447
O         -0.00001        1.50669        1.34723
O          0.00003        2.14261       -0.80041
H          0.00004        3.03031       -0.39005
