19
id_2304_cb.log	Energy: -370138.1747578
C         -3.36204       -0.55713        0.00000
H         -4.42319       -0.33174        0.00000
C         -2.41403        0.43223        0.00000
H         -2.68895        1.48416        0.00000
C         -1.04150        0.07208        0.00000
C          0.00000        1.03547        0.00000
H         -0.26146        2.09023        0.00000
C          1.32000        0.64775        0.00000
C          1.63874       -0.73806        0.00000
H          2.68265       -1.03476        0.00000
C          0.65224       -1.69193        0.00000
H          0.89518       -2.75084        0.00000
C         -0.71601       -1.31169        0.00000
N         -1.67350       -2.28897        0.00000
C         -2.93371       -1.90806        0.00000
H         -3.67839       -2.70080        0.00000
C          2.43234        1.68522        0.00000
O          3.61916        1.25680        0.00000
O          2.09741        2.90212        0.00000
