72
id_2105_cb.log	Energy: -1006575.3987474
C          9.36533       -1.07251        0.00265
H          9.45231       -0.75233        1.05544
H          9.81998       -2.06260       -0.09214
H          9.93161       -0.37053       -0.61583
N          7.97974       -1.11950       -0.44353
C          7.37655        0.20218       -0.29584
H          7.44787        0.54812        0.75210
H          7.92286        0.91720       -0.91860
C          5.91835        0.19853       -0.71952
H          5.84645       -0.02336       -1.79718
H          5.51170        1.19879       -0.55290
N          5.15171       -0.76632        0.06702
C          5.76842       -2.09959       -0.00995
H          5.25021       -2.78817        0.65685
H          5.68567       -2.49260       -1.03583
C          7.22867       -2.04699        0.39834
H          7.65934       -3.04842        0.30159
H          7.29774       -1.75269        1.46210
C          3.75720       -0.74355       -0.11573
C          2.93673       -1.64435        0.59361
H          3.38087       -2.35839        1.27851
C          1.55935       -1.61519        0.46348
H          0.95636       -2.31453        1.03221
C          0.92502       -0.68651       -0.37380
C          1.73466        0.20704       -1.07836
H          1.27618        0.92427       -1.75087
C          3.12105        0.18103       -0.96102
H          3.69950        0.88190       -1.54991
C         -0.55573       -0.64195       -0.48372
N         -1.24199       -1.62082        0.07189
C         -2.60289       -1.53920       -0.03289
C         -3.38377       -2.58492        0.52363
H         -2.86584       -3.40437        1.00681
C         -4.75367       -2.54861        0.44177
C         -5.40925       -1.45095       -0.20534
C         -4.66639       -0.43036       -0.74303
H         -5.17243        0.38920       -1.23841
C         -3.25104       -0.46083       -0.66372
C         -2.38389        0.56093       -1.19330
N         -1.06547        0.42927       -1.13397
N         -2.90168        1.65668       -1.79847
H         -3.89343        1.81668       -1.67552
C         -2.12050        2.85088       -2.08617
H         -1.11206        2.54039       -2.35901
H         -2.56130        3.33659       -2.96077
C         -2.11000        3.86391       -0.94258
H         -1.60888        4.78125       -1.30490
H         -3.14690        4.13542       -0.71094
N         -1.49128        3.37324        0.28328
C         -0.04554        3.21907        0.11792
H          0.42289        4.18539       -0.14837
H          0.15654        2.50048       -0.67746
C          0.57161        2.70784        1.40548
H          0.15610        1.71702        1.64812
H          1.65663        2.61921        1.30446
O          0.32700        3.60776        2.47963
C         -1.07083        3.80034        2.65295
H         -1.53906        2.85025        2.94968
H         -1.19238        4.52259        3.46372
C         -1.72121        4.31466        1.37929
H         -1.30648        5.31137        1.13903
H         -2.79788        4.42826        1.54315
O         -6.76611       -1.53430       -0.22563
C         -7.46291       -0.46931       -0.85844
H         -7.18479       -0.39422       -1.91502
H         -7.26023        0.48241       -0.35609
H         -8.52165       -0.71187       -0.77341
O         -5.58997       -3.49358        0.93306
C         -4.98974       -4.60950        1.58074
H         -4.41271       -4.28785        2.45347
H         -4.34003       -5.15592        0.88979
H         -5.81308       -5.24857        1.89747
