42
id_2380_ca.log	Energy: -756615.2225782
C          0.75844        3.70928        0.96042
H          0.59873        4.53864        1.64183
C          1.28075        3.93756       -0.30947
H          1.52843        4.94376       -0.63038
C          1.48973        2.86266       -1.17083
H          1.90336        3.02141       -2.16227
C          1.14841        1.57487       -0.76885
C          0.63197        1.33540        0.51373
C          0.44861        2.41716        1.37974
H          0.05987        2.25624        2.37983
N          0.30679        0.00365        0.87403
C          1.25694       -1.00085        0.56894
C          1.64753       -1.97572        1.49192
H          1.24890       -1.96259        2.50068
C          2.55730       -2.96435        1.12306
H          2.83843       -3.72119        1.84824
C          3.11899       -2.97306       -0.15066
H          3.83333       -3.73912       -0.43273
C          2.76827       -1.98050       -1.06300
H          3.20765       -1.96265       -2.05592
C          1.83289       -1.01225       -0.71025
S          1.28839        0.20155       -1.88837
C         -0.64470       -0.22649        1.95399
H         -0.72625       -1.30507        2.09649
H         -0.33270        0.20397        2.91311
C         -2.01818        0.32173        1.58396
H         -2.03945        1.41267        1.54720
H         -2.77075       -0.02964        2.29273
N         -2.41841       -0.16040        0.23225
C         -3.73844        0.36788       -0.24429
H         -4.45565        0.18710        0.56046
H         -3.64439        1.43710       -0.43354
C         -4.01075       -0.49482       -1.46487
H         -5.06650       -0.47818       -1.73761
H         -3.42859       -0.12199       -2.31244
C         -3.52476       -1.89631       -1.04330
H         -3.06479       -2.42917       -1.87602
H         -4.35539       -2.49831       -0.67100
C         -2.51606       -1.66016        0.09596
H         -1.51638       -2.05001       -0.09929
H         -2.87580       -2.03786        1.05470
H         -1.69667        0.15499       -0.43140
