22
id_2220_ca.log	Energy: -230125.2545712
C         -2.82641       -0.24367       -0.21683
H         -2.83394       -0.10188       -1.29682
H         -3.71250        0.19991        0.23383
H         -2.76313       -1.30171        0.03208
N         -1.62424        0.44366        0.33226
H         -1.58769        0.30279        1.35032
C         -0.33299       -0.01824       -0.26248
C         -0.02577       -1.48392        0.04619
H         -0.43961       -1.74660        1.02627
H         -0.47060       -2.15414       -0.69118
C          1.52692       -1.55611        0.07168
H          1.91111       -2.23921       -0.68773
H          1.86449       -1.92458        1.04310
C          2.02454       -0.11704       -0.16172
H          2.18653        0.07235       -1.22914
H          2.94914        0.11534        0.37047
C          0.86298        0.75702        0.29403
O          0.97203        2.07384       -0.20960
H          0.43320        2.66105        0.34312
H         -0.41054        0.17228       -1.33704
H          0.80334        0.76384        1.39233
H         -1.71194        1.45607        0.17612
