18
id_2421_cb.log	Energy: -288486.6187623
C          2.12975       -0.90870       -0.78621
H          3.20753       -0.77977       -0.62282
H          1.87406       -0.38400       -1.71142
H          1.90418       -1.97297       -0.87427
C          1.41330       -0.30450        0.38755
O          0.97147       -1.00009        1.29711
C          1.27179        1.19630        0.42106
H          1.15143        1.50790        1.46381
H          2.18390        1.64790        0.01561
C          0.06098        1.68027       -0.40097
H          0.19055        1.41001       -1.45428
H          0.05452        2.77385       -0.35075
C         -1.27355        1.14918        0.11590
H         -2.09222        1.71355       -0.35065
H         -1.35953        1.30930        1.19641
C         -1.56255       -0.32436       -0.18804
O         -1.05665       -0.83029       -1.22897
O         -2.33391       -0.93900        0.60593
