26
id_2029_cb.log	Energy: -409386.5385501
C          2.33575       -2.74651       -0.00000
H          2.97966       -2.63955       -0.88072
H          1.91993       -3.75744       -0.00002
H          2.97964       -2.63958        0.88074
C          1.23590       -1.71863        0.00000
C         -0.08346       -2.10350       -0.00000
H         -0.33930       -3.16164       -0.00000
C         -1.13829       -1.15137       -0.00000
C         -2.50441       -1.54502       -0.00000
H         -2.73975       -2.60693       -0.00000
C         -3.50659       -0.60446        0.00000
H         -4.54750       -0.91469        0.00000
C         -3.18586        0.77658        0.00001
H         -3.98394        1.51338        0.00001
C         -1.87301        1.18528        0.00000
H         -1.63596        2.24688        0.00001
C         -0.81513        0.23343        0.00000
C          0.56091        0.61794        0.00000
C          1.56926       -0.32265        0.00000
C          3.02245        0.07812       -0.00000
H          3.14939        1.16342        0.00003
H          3.53823       -0.32161       -0.88079
H          3.53825       -0.32166        0.88075
C          0.88826        2.10143       -0.00000
O          1.00664        2.66472       -1.12210
O          1.00668        2.66472        1.12210
