20
id_2390_ca.log	Energy: -333610.2614256
C          2.93482       -0.99554       -0.00438
H          3.85288       -0.41082        0.06537
H          2.98224       -1.58364       -0.92771
H          2.91129       -1.68951        0.84318
C          1.74446       -0.07316       -0.00029
C          1.92757        1.31471        0.01940
H          2.94287        1.69781        0.03231
C          0.85571        2.19680        0.02241
H          1.02869        3.26672        0.03714
C         -0.44421        1.70950        0.01243
H         -1.30000        2.37229        0.02301
C         -0.64460        0.33720       -0.00346
C          0.43590       -0.55322       -0.01665
N          0.22891       -2.00286       -0.05388
H         -0.40595       -2.28043       -0.81503
H          1.11661       -2.50276       -0.18932
N         -2.02937       -0.13422        0.00800
O         -2.91775        0.68716       -0.10615
O         -2.22998       -1.33460        0.13857
H         -0.20139       -2.34834        0.81605
