26
id_294_ca.log	Energy: -372665.9181398
C          5.27752       -0.15285        0.19571
H          5.34854       -0.90991        0.98244
H          5.49198       -0.62355       -0.76843
H          6.03558        0.61323        0.38296
C          3.90683        0.48442        0.18735
H          3.82862        1.24460       -0.59910
H          3.68258        0.95415        1.15249
O          2.95199       -0.55161       -0.06363
C          1.63032       -0.20378       -0.10930
C          1.15411        1.09715        0.06539
H          1.82766        1.92601        0.24938
C         -0.21965        1.33662        0.01184
H         -0.59205        2.34774        0.15518
C         -1.12022        0.30032       -0.22412
C         -0.63554       -0.99809       -0.42186
H         -1.32040       -1.81040       -0.63509
C          0.72859       -1.24560       -0.35516
H          1.11327       -2.25032       -0.50383
N         -2.50292        0.60933       -0.30335
H         -2.73304        1.54697       -0.61591
C         -3.52221       -0.14526        0.17430
O         -3.35017       -1.25207        0.70294
C         -4.90172        0.43622        0.01743
H         -5.47828       -0.21650       -0.64495
H         -5.38999        0.43902        0.99555
H         -4.89671        1.44821       -0.39126
