29
id_2228_cb.log	Energy: -303668.9660816
C          4.06677       -1.25933       -0.91847
H          3.47069       -2.08307       -1.32599
H          5.02531       -1.66992       -0.58685
H          4.26610       -0.55697       -1.73510
C          3.32834       -0.56853        0.22357
H          3.95205        0.23546        0.63504
H          3.16125       -1.28156        1.04118
C          1.98650        0.01094       -0.21674
H          1.35167       -0.79174       -0.61472
H          2.14477        0.72696       -1.03455
C          1.26361        0.71224        0.93183
H          1.87852        1.53965        1.29960
H          1.14357        0.02789        1.77665
N         -0.03940        1.27629        0.57494
C          0.04734        2.48430       -0.23559
H          0.09907        2.27394       -1.31346
H          0.94443        3.03352        0.05453
H         -0.81260        3.13536       -0.05669
C         -1.07469        0.39005        0.26544
C         -1.08617       -0.93419        0.75345
H         -0.25841       -1.30919        1.34384
C         -2.15177       -1.78588        0.48774
H         -2.12220       -2.79786        0.88177
C         -3.24079       -1.36469       -0.27414
H         -4.06800       -2.03583       -0.48005
C         -3.23545       -0.06427       -0.77023
H         -4.06569        0.29191       -1.37372
C         -2.17437        0.80035       -0.51503
H         -2.21067        1.80144       -0.92705
