45
id_2104_ca.log	Energy: -612589.4479040
C          0.71998        2.25595       -0.35367
H          1.11494        1.99259        0.63442
H          1.51712        2.77411       -0.89338
H          0.49218        1.32938       -0.88971
C         -0.51040        3.15519       -0.25988
H         -0.83693        3.46040       -1.25612
H         -0.27744        4.06821        0.29812
C         -1.70935        2.49898        0.41539
C         -2.24651        1.31107       -0.39320
O         -2.01266        1.24164       -1.59344
N         -3.02940        0.41525        0.25519
H         -3.14410        0.44512        1.26313
C         -3.38907       -0.83706       -0.38660
C         -2.60598       -2.02867        0.20526
H         -2.92893       -2.18292        1.23939
H         -2.86519       -2.92099       -0.37265
C         -1.12627       -1.74745        0.15312
C         -0.43474       -1.36805        1.30656
H         -0.96383       -1.32304        2.25603
C          0.91829       -1.04248        1.25295
H          1.43179       -0.73052        2.15848
C          1.61420       -1.08039        0.03859
C          0.91935       -1.46558       -1.11559
H          1.44423       -1.52045       -2.06514
C         -0.43173       -1.79130       -1.05870
H         -0.95418       -2.08706       -1.96558
C          3.04180       -0.68122       -0.02801
C          3.52349        0.05487       -1.11904
H          2.84251        0.34029       -1.91657
C          4.85924        0.44325       -1.17832
H          5.21450        1.01897       -2.02750
C          5.73486        0.10242       -0.14882
H          6.77642        0.40461       -0.19577
C          5.26564       -0.62881        0.94137
H          5.94238       -0.90452        1.74431
C          3.92997       -1.01607        1.00232
H          3.57515       -1.60130        1.84625
C         -4.83902       -1.06956       -0.27093
N         -5.97239       -1.27673       -0.16595
N         -1.33088        2.09101        1.81161
H         -0.78104        2.84302        2.24934
H         -0.74937        1.23939        1.82093
H         -2.52380        3.22024        0.52477
H         -3.15539       -0.73012       -1.44902
H         -2.14367        1.93433        2.42109
