60
id_2110_ca.log	Energy: -1967497.1714032
C          1.55899       -2.31132        1.64393
H          2.44024       -2.67116        2.16430
C          0.42055       -1.95249        2.36378
H          0.40825       -2.02489        3.44642
C         -0.70729       -1.52379        1.67027
C         -0.72313       -1.41990        0.28144
H         -1.61941       -1.08976       -0.23637
C          0.42027       -1.77020       -0.43241
H          0.42048       -1.70690       -1.51700
C          1.54636       -2.22635        0.25365
S          2.98717       -2.72475       -0.69438
O          2.46420       -3.29168       -1.95673
O          3.73384       -3.68863        0.14452
N          3.78416       -1.39690       -1.09166
C          4.28948       -0.64296       -0.07243
O          4.38558       -0.99221        1.12250
N          4.74562        0.61271       -0.46797
C          4.10659        1.22870       -1.63796
H          4.11210        0.53295       -2.47390
H          4.70542        2.10123       -1.91737
C          2.67335        1.64155       -1.29533
H          2.19702        2.10654       -2.16461
H          2.11952        0.72856       -1.04717
C          2.69499        2.60197       -0.10730
H          3.13484        3.55457       -0.42330
C          3.49404        2.06223        1.08011
H          3.59799        2.84551        1.83970
H          2.97885        1.21067        1.53915
C          4.87517        1.59391        0.61489
H          5.45383        2.43681        0.22517
H          5.42911        1.15868        1.44503
N          1.29433        2.96396        0.35695
H          1.41036        3.42216        1.27256
C          0.39474        1.77801        0.57833
H          0.92977        1.04848        1.18928
H          0.19347        1.34388       -0.40364
C         -0.89279        2.22836        1.24425
H         -1.50377        1.34337        1.44015
H         -0.68164        2.69676        2.21280
C         -1.62630        3.23875        0.36461
H         -2.54099        3.59396        0.84981
C         -0.70632        4.41435        0.06146
H         -0.52512        4.96110        0.99344
H         -1.18778        5.10085       -0.64089
C          0.61959        3.96480       -0.54053
H          0.48067        3.47991       -1.50892
H          1.30448        4.80620       -0.65407
O         -1.95069        2.66721       -0.91624
C         -2.72979        1.55015       -0.98063
C         -2.59941        0.77456       -2.13747
H         -1.89001        1.07536       -2.90207
C         -3.36519       -0.37081       -2.29333
H         -3.26193       -0.97966       -3.18591
C         -4.26239       -0.76006       -1.29787
C         -4.39504        0.02368       -0.15302
C         -3.63611        1.18127        0.01325
H         -3.76438        1.77074        0.91473
Cl        -5.51600       -0.40969        1.10250
Cl        -5.18877       -2.21611       -1.51177
Cl        -2.15819       -1.13256        2.56157
