28
id_2370_cb.log	Energy: -347711.6976993
C          1.18823        2.50781       -0.31337
H          0.61244        3.37727        0.00618
H          1.57419        2.69399       -1.32173
H          2.05103        2.38261        0.34910
C          0.32425        1.27909       -0.29588
C          0.87802        0.00919       -0.51692
C         -0.00131       -1.07105       -0.41023
N         -1.31000       -0.90970       -0.16937
C         -1.73971        0.35083       -0.02486
N         -0.97570        1.45874       -0.05701
N         -3.07731        0.54918        0.15588
H         -3.31360        1.46778        0.50714
C         -3.95972       -0.54203        0.52110
H         -4.95676       -0.13259        0.68368
H         -3.63475       -1.05638        1.43319
H         -4.01505       -1.27772       -0.28377
C          0.48910       -2.48395       -0.55565
H         -0.30549       -3.18577       -0.29933
H          1.35192       -2.66305        0.09416
H          0.80868       -2.67826       -1.58556
C          2.34852       -0.18193       -0.77594
H          2.50594       -1.05512       -1.42087
H          2.74397        0.66920       -1.34392
C          3.19128       -0.35402        0.46642
H          4.25667       -0.48898        0.28222
C          2.74117       -0.35307        1.71937
H          3.41690       -0.48406        2.55938
H          1.68601       -0.22167        1.94931
