43
id_2144_cb.log	Energy: -783127.6386574
C          1.35606        3.31720        0.94511
H          2.17879        3.17160        1.65214
H          0.46479        2.81984        1.33884
H          1.14487        4.38840        0.87464
C          1.74340        2.79340       -0.42833
H          0.97826        2.98506       -1.17668
H          2.66026        3.27469       -0.76895
N          2.04419        1.34089       -0.39594
C          3.34354        0.98267       -0.37196
H          4.04094        1.79703       -0.53509
C          3.83377       -0.28223       -0.15381
C          2.90450       -1.35694        0.08054
O          3.21534       -2.55263        0.26703
C          1.48107       -0.96660        0.06282
C          1.07480        0.36403       -0.17512
C         -0.30998        0.61503       -0.21217
C         -1.29278       -0.34296        0.03960
C         -0.81141       -1.64109        0.31065
C          0.51940       -1.95900        0.29775
H          0.83337       -2.97685        0.50193
F         -1.69738       -2.61546        0.61100
N         -2.63609        0.03901       -0.02846
C         -3.08207        0.97285        1.01805
H         -2.31433        1.73042        1.18922
H         -3.23687        0.42128        1.96106
C         -4.38334        1.63349        0.58818
H         -4.74405        2.27868        1.39397
H         -4.19240        2.26496       -0.28739
N         -5.43823        0.67597        0.23987
H         -5.67643        0.15374        1.08746
C         -4.95378       -0.30387       -0.74478
C         -3.65568       -0.97864       -0.29772
H         -3.29293       -1.64428       -1.08601
H         -3.87052       -1.58055        0.60045
C         -6.02334       -1.35257       -1.00186
H         -5.67927       -2.08534       -1.73877
H         -6.93928       -0.88780       -1.37870
H         -6.26522       -1.88857       -0.07572
F         -0.76014        1.84267       -0.53930
C          5.33886       -0.44115       -0.14729
O          6.00956        0.43256       -0.76975
O          5.83653       -1.40838        0.49121
H         -4.75092        0.24762       -1.67185
