19
id_2305_ca.log	Energy: -289244.1684838
C          2.73996        0.29228        0.00000
H          3.79227        0.56129        0.00001
C          2.36690       -1.07539       -0.00000
H          3.13620       -1.84204        0.00000
C          1.03946       -1.43352       -0.00000
H          0.75351       -2.48055       -0.00000
C          0.02766       -0.43633       -0.00000
C          0.39512        0.93978       -0.00000
C          1.77774        1.27317        0.00000
H          2.05721        2.32397        0.00001
C         -0.61575        1.94108        0.00000
H         -0.32041        2.98679        0.00000
C         -1.94037        1.57994        0.00000
H         -2.71531        2.34103        0.00000
C         -2.32327        0.21610       -0.00000
H         -3.37444       -0.06083       -0.00000
C         -1.36093       -0.76518       -0.00000
O         -1.66696       -2.10074       -0.00000
H         -2.63251       -2.21527        0.00006
