21
id_2220_cb.log	Energy: -229831.9262105
C         -2.79147       -0.24173       -0.21972
H         -2.84008       -0.06441       -1.29849
H         -3.71300        0.13968        0.22692
H         -2.75671       -1.32855       -0.05768
N         -1.64154        0.47334        0.33390
H         -1.61516        0.27971        1.33685
C         -0.38483       -0.02236       -0.21628
C          0.01069       -1.48001        0.08281
H         -0.34078       -1.74021        1.08903
H         -0.44522       -2.18708       -0.61447
C          1.56329       -1.49967        0.02366
H          1.93350       -2.13373       -0.78519
H          1.97360       -1.89812        0.95528
C          2.00105       -0.03121       -0.17745
H          2.14078        0.19098       -1.24194
H          2.92835        0.21782        0.34439
C          0.80553        0.77116        0.31123
O          0.83723        2.10944       -0.15532
H         -0.04926        2.47000        0.01444
H         -0.41791        0.13390       -1.30384
H          0.76929        0.75395        1.41445
