28
id_2217_cb.log	Energy: -232716.1548598
C         -1.69609        1.45988       -0.20889
H         -1.05356        2.10013        0.40004
H         -2.73057        1.63101        0.11225
H         -1.61156        1.78545       -1.25261
C         -1.34745       -0.02874       -0.07180
C         -1.45066       -0.43701        1.40203
H         -1.16383       -1.48484        1.54959
H         -2.48544       -0.32214        1.74660
H         -0.82483        0.18935        2.04753
C         -2.40138       -0.82198       -0.85939
H         -3.41056       -0.58583       -0.50278
H         -2.24513       -1.90120       -0.74840
H         -2.35499       -0.58166       -1.92828
C          0.02030       -0.36940       -0.71348
H          0.01931        0.09432       -1.71102
H          0.03995       -1.45596       -0.88946
C          1.37518       -0.03837       -0.03981
C          1.48231        1.40993        0.43209
H          0.82620        1.60447        1.28660
H          1.21578        2.10512       -0.37080
H          2.51035        1.62128        0.74544
C          2.46317       -0.29535       -1.08638
H          3.45366       -0.13794       -0.64783
H          2.35047        0.37624       -1.94359
H          2.41134       -1.32745       -1.45374
N          1.69109       -0.90748        1.11250
H          1.55583       -1.87501        0.81348
H          0.98767       -0.75679        1.83316
