30
id_265_ca.log	Energy: -303969.7303855
C         -3.48871        1.54267       -0.37478
H         -2.45104        1.80330       -0.60785
H         -3.71195        1.92739        0.62694
H         -4.13317        2.06551       -1.08779
C         -3.71018        0.03500       -0.43685
H         -3.46514       -0.33699       -1.43950
H         -4.76917       -0.18901       -0.26669
C         -2.87804       -0.73592        0.59983
H         -3.14347       -1.79790        0.55302
H         -3.13540       -0.37755        1.60346
C         -1.39399       -0.58313        0.37630
C         -0.75180       -1.31535       -0.62657
H         -1.32550       -2.02162       -1.22211
C          0.60931       -1.15545       -0.86899
H          1.09441       -1.73384       -1.65082
C          1.36224       -0.26083       -0.10723
C          0.72840        0.47751        0.89584
H          1.29812        1.18071        1.50042
C         -0.63429        0.31875        1.12895
H         -1.11791        0.89836        1.91134
C          2.84311       -0.11556       -0.36320
C          3.71769       -0.40493        0.84536
H          3.47154        0.26360        1.67585
H          4.77539       -0.28461        0.59361
H          3.55006       -1.43510        1.16670
N          3.12918        1.29388       -0.82389
H          2.91102        1.97380       -0.08426
H          2.57042        1.53636       -1.65018
H          3.13314       -0.75001       -1.20235
H          4.12188        1.40388       -1.06449
