24
id_2035_ca.log	Energy: -337906.9551339
C          2.05287        2.48854       -0.11403
H          1.29553        2.86851        0.57897
H          1.74385        2.67832       -1.14688
H          3.00871        2.97382        0.08080
O          2.27158        1.09719        0.09585
C          1.20449        0.26024       -0.08447
C         -0.07669        0.65119       -0.45597
H         -0.30312        1.70011       -0.62448
C         -1.09145       -0.30580       -0.61416
C         -0.79599       -1.64919       -0.39480
H         -1.57495       -2.39832       -0.51350
C          0.49171       -2.04790       -0.02111
H          0.73039       -3.09411        0.14789
C          1.48822       -1.09886        0.13432
O          2.75481       -1.48869        0.49748
H          3.32088       -0.69774        0.55107
C         -2.49021        0.13539       -0.96438
H         -2.45373        0.98338       -1.66075
H         -3.01100       -0.67057       -1.49733
C         -3.33263        0.53751        0.22306
H         -4.34028        0.87182       -0.02547
C         -2.95522        0.51352        1.50250
H         -3.63608        0.82067        2.29180
H         -1.96194        0.18841        1.80563
