27
id_205_ca.log	Energy: -232258.6687538
C          3.87857       -0.04266        0.01504
H          4.02629       -0.11501        1.09729
H          4.63020        0.64320       -0.38353
H          4.05545       -1.03194       -0.41832
C          2.47180        0.45290       -0.31023
H          2.33479        0.51067       -1.39664
H          2.33606        1.45965        0.09467
C          1.44380       -0.50366        0.27228
H          1.42956       -0.47636        1.36558
H          1.65427       -1.52667       -0.05012
N          0.04275       -0.20875       -0.17757
C         -0.47083        1.10420        0.34590
H         -0.45451        1.01593        1.43644
H          0.23116        1.87783        0.03559
C         -1.87095        1.38092       -0.18021
H         -2.20093        2.33461        0.24120
H         -1.82483        1.50337       -1.26957
C         -2.83398        0.25163        0.17872
H         -2.94872        0.20237        1.26869
H         -3.82165        0.44558       -0.24853
C         -2.28588       -1.07803       -0.33536
H         -2.26079       -1.07521       -1.43218
H         -2.91685       -1.91551       -0.02475
C         -0.88385       -1.33401        0.19203
H         -0.45078       -2.24615       -0.22141
H         -0.86514       -1.38922        1.28452
H          0.05516       -0.14364       -1.20497
