12
id_2157_cb.log	Energy: -769345.2747652
C          0.00004       -2.26995        0.00000
H          0.00005       -3.35469        0.00000
C          1.20078       -1.55982        0.00000
H          2.15256       -2.08345        0.00000
C          1.18795       -0.17254        0.00000
C          0.00000        0.62574        0.00000
C         -1.18794       -0.17258        0.00000
C         -1.20073       -1.55985        0.00000
H         -2.15249       -2.08352        0.00000
Cl        -2.72761        0.67316        0.00000
O         -0.00003        1.91080        0.00000
Cl         2.72759        0.67327        0.00000
