23
id_2035_cb.log	Energy: -337611.4532342
C          1.98166        2.51047       -0.14811
H          1.20853        2.87196        0.53964
H          1.65588        2.67341       -1.18189
H          2.91031        3.05371        0.03053
O          2.27440        1.14292        0.08584
C          1.24283        0.24030       -0.07355
C         -0.04241        0.59996       -0.45304
H         -0.28843        1.64288       -0.63633
C         -1.05360       -0.36844       -0.60521
C         -0.72471       -1.69810       -0.36392
H         -1.48829       -2.46721       -0.47275
C          0.57154       -2.06563        0.01861
H          0.81050       -3.11232        0.19738
C          1.60859       -1.12340        0.18229
O          2.82953       -1.44383        0.53511
C         -2.45763        0.05253       -0.95959
H         -2.43659        0.85446       -1.71081
H         -2.98889       -0.78356       -1.43433
C         -3.29159        0.53353        0.20518
H         -4.29922        0.86079       -0.05501
C         -2.90571        0.58505        1.48162
H         -3.57759        0.94418        2.25675
H         -1.91145        0.27128        1.79350
