8
id_2432_ca.log	Energy: -330471.4573397
C          0.94432        0.15139        0.00443
O          1.48056        1.22814        0.00180
C         -0.59081       -0.00224        0.00136
F         -0.99723       -0.60733       -1.12067
F         -1.17902        1.18739        0.07562
F         -0.99664       -0.74291        1.03809
O          1.51276       -1.03796        0.00246
H          2.48842       -0.95078       -0.00623
