23
id_2051_ca.log	Energy: -324364.3813723
C          1.97343        2.43228       -0.04768
H          1.30830        2.79399        0.74296
H          1.56628        2.70387       -1.02683
H          2.96337        2.87029        0.07389
O          2.15201        1.02472        0.05088
C          1.03474        0.24934       -0.05217
C         -0.25436        0.70911       -0.27322
H         -0.45208        1.77119       -0.38072
C         -1.31413       -0.20645       -0.36361
C         -1.06987       -1.56883       -0.23134
H         -1.89173       -2.27502       -0.30445
C          0.22782       -2.03368       -0.01133
H          0.43896       -3.09328        0.08890
C          1.27587       -1.13238        0.08068
O          2.54552       -1.58366        0.29535
H          3.13764       -0.81155        0.33845
C         -2.71286        0.29930       -0.55942
H         -3.36955       -0.46720       -0.97021
H         -2.74874        1.18733       -1.19050
N         -3.30727        0.70103        0.76347
H         -2.75124        1.44488        1.20159
H         -3.32627       -0.09751        1.40847
H         -4.26806        1.04510        0.65286
