22
id_2310_cb.log	Energy: -264422.9240474
C         -0.10645        0.30803        1.54231
H         -0.83749        0.75140        2.22646
H          0.85853        0.29399        2.05927
C         -0.53192       -1.12381        1.13183
H         -1.30504       -1.50648        1.80380
H          0.31933       -1.81061        1.18493
N         -1.04915       -1.16950       -0.24825
C         -2.06774       -0.11419       -0.40258
H         -2.56847       -0.25480       -1.36462
H         -2.81441       -0.26615        0.38242
C         -1.44874        1.30173       -0.30583
H         -1.40020        1.77730       -1.29162
H         -2.05200        1.94512        0.34167
C         -0.03568        1.16565        0.27333
H          0.40203        2.14516        0.47996
C          0.81085        0.42567       -0.79023
C          0.05326       -0.89279       -1.16893
H          0.74169       -1.74184       -1.17002
H         -0.35570       -0.78856       -2.17680
C          2.15360        0.14249       -0.28064
N          3.20887       -0.09925        0.13438
H          0.93051        1.06005       -1.67392
