27
id_2096_ca.log	Energy: -372957.0799933
C          0.64852        1.94073       -0.16252
H          0.35005        2.98468       -0.21633
C          1.99367        1.62030        0.00430
H          2.75223        2.39520        0.08063
C          2.37153        0.28504        0.08222
C          1.40432       -0.71791       -0.00201
C          0.05488       -0.40703       -0.18806
C         -0.32461        0.94285       -0.26581
C         -1.77165        1.33857       -0.48639
H         -1.92747        1.59358       -1.54141
H         -2.00722        2.24088        0.08972
C         -2.75910        0.22908       -0.15855
C         -2.31953       -1.09786       -0.75947
H         -3.06519       -1.87295       -0.55504
H         -2.28954       -0.94936       -1.84436
C         -0.94498       -1.54020       -0.25506
H         -0.56237       -2.33211       -0.90674
H         -1.03216       -1.99750        0.74130
N         -2.89167        0.09159        1.33709
H         -3.51670       -0.68614        1.58028
H         -3.28137        0.94799        1.74824
H         -1.99015       -0.08372        1.79727
O          1.76389       -2.03948        0.10112
O          3.66775       -0.14317        0.25140
H          4.27013        0.61930        0.27659
H         -3.75784        0.49761       -0.50501
H          2.72782       -2.09885        0.22312
