25
id_2221_ca.log	Energy: -385132.4064288
C         -4.52845       -0.26835        0.80534
H         -4.25829        0.78546        0.92534
H         -4.23655       -0.79897        1.71895
H         -5.61755       -0.32579        0.71506
C         -3.84897       -0.88209       -0.41554
H         -4.13868       -0.34579       -1.32708
H         -4.16972       -1.92262       -0.54039
C         -2.33736       -0.89100       -0.30888
H         -1.88284       -1.38296       -1.17699
H         -2.01466       -1.41094        0.60290
O         -1.89132        0.46869       -0.25459
C         -0.55380        0.70144       -0.14932
C         -0.16785        2.04884       -0.10188
H         -0.93709        2.81426       -0.15018
C          1.17411        2.38772        0.00333
H          1.46074        3.43414        0.03872
C          2.15436        1.39499        0.06370
H          3.20213        1.66089        0.14527
C          1.76180        0.05822        0.01529
C          0.41162       -0.30151       -0.09119
H          0.14689       -1.35166       -0.12727
C          2.75962       -1.04273        0.07132
O          2.47717       -2.22749        0.01790
O          4.02408       -0.61577        0.18768
H          4.61556       -1.39258        0.21467
