17
id_2245_cb.log	Energy: -205054.2665356
C         -1.89445       -1.32084       -0.01095
H         -2.48684       -0.99582       -0.87456
H         -2.47346       -1.06617        0.88607
H         -1.79935       -2.40852       -0.05012
C         -0.54039       -0.66511       -0.00071
C          0.63340       -1.41703        0.00924
H          0.55218       -2.50159        0.01559
C          1.89208       -0.81609        0.00890
H          2.78999       -1.42551        0.01543
C          1.97696        0.57409       -0.00060
H          2.94602        1.06458        0.00107
C          0.81946        1.34641       -0.00573
H          0.88226        2.43188       -0.00835
C         -0.44358        0.74172       -0.00665
N         -1.60181        1.52159       -0.08135
H         -2.40252        1.11503        0.39169
H         -1.45658        2.47603        0.23161
