16
id_2367_ca.log	Energy: -319027.4402480
C          0.02838        1.25872        0.00000
H          0.58985        2.18558        0.00000
C         -1.33416        1.26332        0.00000
H         -1.90410        2.18422        0.00000
C         -2.04501        0.03206        0.00000
N         -1.31913       -1.12068        0.00000
C          0.02885       -1.15560        0.00000
H          0.49395       -2.13260       -0.00000
C          0.71363        0.02331        0.00000
N          2.16098       -0.01426       -0.00000
O          2.75262        1.05183       -0.00000
O          2.70867       -1.10488       -0.00000
N         -3.36221       -0.03882       -0.00000
H         -3.85075       -0.92870       -0.00000
H         -3.91050        0.81410       -0.00000
H         -1.81645       -2.01273       -0.00000
