37
id_2126_ca.log	Energy: -562505.1633265
C         -3.60799        2.78788        0.25051
H         -3.84050        3.16378       -0.74983
H         -3.08910        3.57602        0.80267
H         -4.54113        2.55357        0.76358
C         -2.74797        1.58053        0.15562
C         -2.97302        0.28322        0.51399
N         -1.81807       -0.43667        0.19192
C         -1.53556       -1.77391        0.35196
H         -2.30317       -2.39030        0.80108
C         -0.31622       -2.22196       -0.05486
H         -0.07993       -3.27157        0.06757
C          0.64648       -1.35191       -0.62845
H          1.60732       -1.74993       -0.93245
C          0.35317       -0.01876       -0.78634
C         -0.91674        0.41991       -0.35152
N         -1.47681        1.64121       -0.37076
O          1.11751        0.95687       -1.31644
C          2.44325        0.60209       -1.72675
H          2.40062       -0.23973       -2.42651
H          2.79219        1.48240       -2.27070
C          3.34822        0.29712       -0.55697
C          3.17549        0.94472        0.66784
H          2.36102        1.65319        0.79197
C          4.03968        0.67898        1.72743
H          3.89691        1.18327        2.67824
C          5.08512       -0.22960        1.56857
H          5.75808       -0.43522        2.39516
C          5.25972       -0.87735        0.34699
H          6.06718       -1.59164        0.21901
C          4.38925       -0.61964       -0.70999
H          4.51532       -1.13391       -1.65962
C         -4.16365       -0.37189        1.12885
H         -4.87786        0.39250        1.44536
H         -3.88288       -0.94955        2.01720
C         -4.83868       -1.27447        0.18643
N         -5.35468       -1.99074       -0.56142
H         -1.02048        2.47572       -0.72927
