28
id_2258_cb.log	Energy: -373876.8930723
N         -0.02159        2.46202        0.54586
H         -0.97346        2.84275        0.57655
C         -0.06101        1.22553        0.21811
C         -1.32387        0.47557       -0.05147
C         -2.49236        0.78091        0.65514
H         -2.46996        1.53831        1.43454
C         -3.67499        0.09930        0.38625
H         -4.57313        0.33531        0.94823
C         -3.70334       -0.88957       -0.59645
H         -4.62632       -1.42113       -0.80618
C         -2.54287       -1.19967       -1.30377
H         -2.56074       -1.96848       -2.06988
C         -1.35584       -0.52712       -1.02668
H         -0.45014       -0.77461       -1.57364
C          1.23697        0.50279        0.04523
C          2.20041        1.07662       -0.78990
H          1.96947        2.01377       -1.28755
C          3.42934        0.45727       -0.99385
H          4.16434        0.90920       -1.65236
C          3.70529       -0.74260       -0.34336
H          4.66152       -1.23636       -0.48746
C          2.75471       -1.30737        0.50344
H          2.98157       -2.23263        1.02690
C          1.50921       -0.70767        0.70969
C          0.52272       -1.35372        1.65127
H         -0.21909       -1.94849        1.10653
H          1.04476       -2.02194        2.34095
H         -0.02394       -0.61147        2.24056
