11
id_2204_cb.log	Energy: -108660.8062310
C          1.49666       -0.54570        0.00000
H          1.01106       -1.51883        0.00002
H          2.58250       -0.54075        0.00000
C          0.79689        0.58615       -0.00000
H          1.32095        1.54203       -0.00002
C         -0.70657        0.67781        0.00001
H         -1.01970        1.26397       -0.87200
H         -1.01969        1.26394        0.87204
N         -1.44615       -0.58153       -0.00001
H         -1.13698       -1.12458        0.80666
H         -1.13695       -1.12459       -0.80666
