21
id_242_ca.log	Energy: -323971.3966478
C          3.79177        0.21122       -0.00002
H          4.23154       -0.26595        0.88233
H          4.07558        1.26647        0.00006
H          4.23145       -0.26578       -0.88251
C          2.29712        0.05756        0.00003
C          1.43188        1.12397       -0.00000
H          1.81052        2.14440        0.00000
C          0.02791        0.90787       -0.00001
C         -0.92939        1.95637       -0.00000
H         -0.58560        2.98687        0.00001
C         -2.27107        1.65286        0.00001
H         -3.00717        2.45144        0.00002
C         -2.72432        0.31130        0.00001
H         -3.78596        0.08382        0.00001
C         -1.81050       -0.71488       -0.00000
C         -0.41224       -0.43777       -0.00001
N          0.44064       -1.50155        0.00001
C          1.73004       -1.24909        0.00002
H          2.39601       -2.11088        0.00005
O         -2.22641       -2.01483       -0.00002
H         -1.42681       -2.57738       -0.00001
