30
id_2250_ca.log	Energy: -461706.8137807
C         -3.49555        0.14067       -1.71417
H         -3.25165        1.07251       -2.23487
H         -4.57522        0.12950       -1.53042
H         -3.25900       -0.69510       -2.38104
Si        -2.55472        0.00133       -0.10309
C         -2.88372       -1.61784        0.78460
H         -3.93124       -1.68406        1.09800
H         -2.26413       -1.70877        1.68483
H         -2.66935       -2.47532        0.13791
C         -2.85708        1.45676        1.04038
H         -2.56401        2.40161        0.57028
H         -2.29438        1.35154        1.97565
H         -3.91842        1.52604        1.30279
C         -0.69577        0.02269       -0.56368
H         -0.41756       -0.84653       -1.16645
H         -0.42699        0.92483       -1.12049
N          0.19964       -0.00307        0.65091
H         -0.01725       -0.83540        1.21589
C          1.63328       -0.00124        0.32810
C          2.27718        1.21673        0.16254
H          1.73477        2.14712        0.30508
C          3.62568        1.21026       -0.18464
H          4.14899        2.15150       -0.31485
C          4.29811        0.00195       -0.36093
H          5.34908        0.00325       -0.63060
C          3.62740       -1.20789       -0.18973
H          4.15189       -2.14795       -0.32365
C          2.27876       -1.21747        0.15725
H          1.73765       -2.14922        0.29577
H         -0.01432        0.80957        1.24468
