10
id_2143_ca.log	Energy: -155115.9137152
C          0.10197        0.95639       -0.24410
H         -0.02822        1.10270       -1.32104
H          0.32422        1.92622        0.21069
C         -1.16150        0.36796        0.37028
H         -1.98461        1.07051        0.20466
H         -1.02644        0.22389        1.44741
O         -1.41693       -0.87414       -0.27259
H         -2.18155       -1.29093        0.15497
C          1.25178        0.07386       -0.03665
N          2.15407       -0.63266        0.13526
