31
id_269_ca.log	Energy: -413402.7378137
C          3.49946        0.37310       -1.72744
H          4.53643        0.71524       -1.75572
H          2.87737        1.10980       -2.24664
H          3.43618       -0.58278       -2.25595
C          3.06281        0.23392       -0.27935
H          3.66522       -0.51995        0.23361
C          3.09233        1.55401        0.46966
H          4.08982        1.98793        0.36515
H          2.88727        1.43448        1.53563
H          2.36747        2.25406        0.03960
N          1.65699       -0.32751       -0.27739
H          1.03771        0.34246       -0.75627
C          1.09969       -0.64847        1.07042
H          1.81935       -1.30068        1.56815
H          1.00642        0.28713        1.61944
C         -0.26150       -1.34838        0.98849
C         -1.28720       -0.52659        0.22421
C         -1.86903       -0.94886       -0.97114
H         -1.61494       -1.92092       -1.38223
C         -2.79359       -0.14768       -1.64066
H         -3.23347       -0.49813       -2.56821
C         -3.15548        1.09096       -1.11875
H         -3.87584        1.71563       -1.63646
C         -2.59710        1.53265        0.07940
H         -2.86061        2.48609        0.52418
C         -1.68299        0.71467        0.71782
F         -1.14843        1.13004        1.88718
O         -0.14353       -2.67191        0.50885
H          0.03110       -2.66707       -0.44601
H         -0.59393       -1.44318        2.02745
H          1.66524       -1.17858       -0.85534
