31
id_2384_ca.log	Energy: -327872.3399828
C          1.24694        1.43163       -1.28032
H          0.75820        2.21812       -1.84947
C          2.56362        1.60653       -0.87345
H          3.11091        2.51354       -1.11340
C          3.17307        0.58598       -0.15854
C          2.51170       -0.58896        0.15585
H          3.01815       -1.37309        0.71086
C          1.19040       -0.74376       -0.25917
H          0.67627       -1.66777       -0.01742
C          0.53860        0.26054       -0.98109
C         -0.90546        0.15005       -1.42682
H         -0.95572        0.53845       -2.45509
C         -1.45830       -1.27836       -1.44009
H         -0.81679       -1.92697       -2.04835
H         -1.44893       -1.68110       -0.41786
C         -2.89740       -1.30024       -1.95966
H         -2.91125       -0.94882       -3.00046
H         -3.27784       -2.32740       -1.96347
C         -3.79928       -0.40158       -1.11150
H         -4.82063       -0.40317       -1.50774
H         -3.84978       -0.80641       -0.09124
C         -3.25353        1.02629       -1.05656
H         -3.88073        1.65152       -0.41167
H         -3.29131        1.46476       -2.06328
C         -1.80672        1.05030       -0.56038
H         -1.76270        0.68978        0.47724
H         -1.41942        2.07570       -0.56189
N          4.56157        0.76160        0.29215
H          5.09887       -0.11124        0.20814
H          5.04793        1.48035       -0.25949
H          4.60499        1.05189        1.27860
