31
id_274_cb.log	Energy: -668793.3251106
C          4.47123       -1.34067        0.57608
H          5.20721       -1.98896        1.04062
C          3.62939       -0.56470        1.36880
H          3.70756       -0.60793        2.45156
C          2.67727        0.27221        0.78125
C          2.56372        0.31917       -0.60754
H          1.83182        0.95017       -1.10213
C          3.41316       -0.46828       -1.36907
C          4.37027       -1.30107       -0.81305
H          5.00660       -1.89896       -1.45610
F          3.29824       -0.41994       -2.71026
C          1.80302        1.13438        1.67304
H          2.33914        2.05013        1.93306
H          1.60109        0.60790        2.61134
N          0.55665        1.55892        1.06066
H          0.48313        2.51573        0.74212
C         -0.44327        0.72508        0.74421
C         -0.36078       -0.65523        1.10337
H          0.52333       -1.01278        1.61551
C         -1.36538       -1.54068        0.82173
H         -1.27502       -2.58102        1.11012
C         -2.51663       -1.09395        0.15324
C         -2.65650        0.22138       -0.22647
H         -3.54389        0.56075       -0.74433
C         -1.63705        1.12170        0.06156
N         -1.85528        2.47914       -0.37647
O         -2.89972        2.75420       -0.94931
O         -0.98514        3.32187       -0.16384
N         -3.57695       -2.02688       -0.14704
O         -4.57163       -1.61704       -0.73095
O         -3.43435       -3.19276        0.19753
