29
id_2276_cb.log	Energy: -256625.4878778
C         -1.60664       -0.46433        1.42162
H         -1.00612        0.15969        2.08641
H         -1.44672       -1.51275        1.70012
H         -2.65954       -0.22402        1.60825
C         -1.27642       -0.25407       -0.06718
C         -1.25036        1.24149       -0.40941
H         -1.27366        1.34642       -1.50274
H         -2.16039        1.71157       -0.01785
C         -0.00000        1.94097        0.12188
H         -0.00000        2.99151       -0.18833
H         -0.00000        1.94019        1.21870
C          1.25036        1.24149       -0.40941
H          2.16039        1.71157       -0.01785
H          1.27366        1.34642       -1.50274
C          1.27642       -0.25407       -0.06718
N          0.00000       -0.85446       -0.50674
H          0.00000       -1.83225       -0.21016
C          1.60664       -0.46433        1.42162
H          1.44672       -1.51275        1.70012
H          1.00612        0.15969        2.08641
H          2.65954       -0.22402        1.60826
C          2.37463       -0.94140       -0.88193
H          3.35384       -0.50524       -0.65744
H          2.18233       -0.83656       -1.95399
H          2.41834       -2.01125       -0.64348
C         -2.37463       -0.94140       -0.88193
H         -3.35384       -0.50524       -0.65744
H         -2.41834       -2.01125       -0.64348
H         -2.18233       -0.83656       -1.95399
