37
id_2086_ca.log	Energy: -434447.0310625
C          3.44907       -2.81462        1.03261
H          4.01915       -3.66070        0.64124
H          2.45004       -3.17232        1.30053
H          3.94194       -2.46536        1.94510
C          3.36733       -1.69870       -0.00369
H          2.88253       -2.06492       -0.91631
H          4.37286       -1.35989       -0.27714
C          2.57450       -0.52568        0.54324
H          3.04590       -0.08192        1.42300
H          1.55226       -0.82085        0.79426
N          2.48041        0.56182       -0.48549
H          3.43248        0.83910       -0.76323
C          1.75337        1.80011       -0.03735
C          1.74099        2.83016       -1.15344
H          1.25888        2.44604       -2.05679
H          2.76514        3.12198       -1.39948
H          1.19749        3.71498       -0.81463
C          0.36403        1.40369        0.47134
O          0.08886        1.51913        1.65966
N         -0.48230        0.91433       -0.46562
H         -0.14839        0.82254       -1.42095
C         -1.72757        0.29268       -0.17048
C         -2.64700        0.91308        0.67353
H         -2.41167        1.88023        1.10291
C         -3.85892        0.28689        0.95005
H         -4.57322        0.76813        1.61028
C         -4.15226       -0.94504        0.37102
H         -5.09746       -1.43610        0.57981
C         -3.22817       -1.55024       -0.47802
H         -3.45342       -2.51372       -0.92709
C         -1.99919       -0.95168       -0.75944
C         -0.98765       -1.61920       -1.65234
H         -1.32290       -2.62172       -1.92641
H         -0.01424       -1.70374       -1.15379
H         -0.82986       -1.05291       -2.57809
H          2.30223        2.16701        0.83087
H          2.04152        0.17939       -1.33574
