24
id_2277_cb.log	Energy: -231200.9089573
C         -2.32191       -0.83138        0.92318
H         -2.09997        0.03891        1.55057
H         -1.87742       -1.71183        1.39602
H         -3.40702       -0.97270        0.90847
C         -1.80013       -0.63104       -0.49921
H         -2.37634        0.15054       -0.99997
H         -1.95325       -1.54838       -1.07758
N         -0.37630       -0.29857       -0.59650
C          0.48421       -1.39733       -0.15786
H          0.32196       -1.62203        0.90889
H          0.20553       -2.28956       -0.72797
C          1.95296       -1.05445       -0.36117
H          2.57014       -1.92244       -0.11075
H          2.12313       -0.82042       -1.41831
C          2.31787        0.15170        0.50408
H          3.28048        0.56879        0.18483
H          2.45683       -0.16457        1.54749
C          1.24194        1.19995        0.39623
H          1.48297        2.21820        0.68833
C          0.01859        0.96823       -0.11683
C         -0.96625        2.09371       -0.29469
H         -0.50353        3.03871       -0.00335
H         -1.87087        1.95734        0.30756
H         -1.28219        2.17317       -1.34101
