21
id_2003_cb.log	Energy: -253589.5088484
C          2.84001        1.36602        0.61883
H          2.83826        1.93566       -0.30884
H          3.12847        1.89680        1.52172
C          2.51176        0.07708        0.63541
H          2.51191       -0.47753        1.57425
C          2.11761       -0.70890       -0.58634
H          2.85102       -1.49989       -0.77006
H          2.12401       -0.06097       -1.46846
N          0.81913       -1.37153       -0.47413
H          0.86010       -2.18617        0.13073
C         -0.32776       -0.61076       -0.23690
C         -1.44071       -1.21825        0.36992
H         -1.36353       -2.25428        0.69126
C         -2.62232       -0.51280        0.55631
H         -3.46629       -1.00732        1.02870
C         -2.72918        0.81773        0.14796
H         -3.65212        1.36862        0.29609
C         -1.62759        1.42587       -0.44880
H         -1.68776        2.46177       -0.77040
C         -0.43596        0.72958       -0.64012
H          0.40688        1.23074       -1.10373
