29
id_2337_ca.log	Energy: -280088.7900098
C          1.30739       -1.25551        0.74254
H          2.40344       -1.27062        0.77878
H          0.94641       -2.15662        1.25385
C          0.78160        0.00005        1.45546
H          1.10875        0.00008        2.50021
C          1.30739        1.25556        0.74246
H          0.94641        2.15669        1.25372
H          2.40344        1.27067        0.77871
C          0.83648        1.25641       -0.72012
H          1.20280        2.15380       -1.22915
C          1.36259       -0.00005       -1.43114
H          1.04150       -0.00008       -2.48022
H          2.45929       -0.00005       -1.42023
C          0.83648       -1.25646       -0.72004
H          1.20280       -2.15388       -1.22902
C         -0.70062       -1.25622       -0.75839
H         -1.09883       -2.14702       -0.25604
H         -1.06024       -1.25776       -1.79529
C         -1.20278       -0.00000       -0.04564
C         -0.75563        0.00005        1.41660
H         -1.15317        0.88888        1.92272
H         -1.15317       -0.88876        1.92278
C         -0.70061        1.25617       -0.75847
H         -1.06024        1.25764       -1.79537
H         -1.09882        2.14700       -0.25617
N         -2.70639       -0.00000       -0.08635
H         -3.08816        0.83125        0.38280
H         -3.08816       -0.83122        0.38284
H         -3.04709       -0.00003       -1.05623
