8
id_2011_ca.log	Energy: -369603.5676497
C          1.51530       -0.23588        0.15525
H          1.46561       -0.35676        1.24085
H          2.15890        0.60587       -0.10929
H          1.86451       -1.14941       -0.33046
S         -0.13185        0.15022       -0.42909
O         -0.55774        1.35164        0.36721
O         -0.79316       -1.18980        0.28824
H         -1.66393       -1.38266       -0.11070
