41
id_2133_cb.log	Energy: -589930.2526456
C          3.20949       -2.94706        0.69781
H          2.23592       -2.75517        1.16223
H          3.98686       -2.61898        1.39583
H          3.30889       -4.02825        0.55811
C          3.34385       -2.21324       -0.64207
H          2.58244       -2.58896       -1.33793
H          4.31999       -2.43752       -1.08486
C          3.20401       -0.71957       -0.49535
C          4.29242        0.14649       -0.51912
H          5.28490       -0.26967       -0.67895
C          4.14811        1.54077       -0.34690
H          5.03297        2.17054       -0.37656
C          2.90115        2.11349       -0.14397
H          2.79429        3.18751       -0.01353
C          1.77346        1.27303       -0.10963
C          1.94892       -0.12423       -0.28538
N          0.70357       -0.71256       -0.22429
H          0.51694       -1.70841       -0.26172
C         -0.23747        0.26595        0.00342
C          0.36302        1.49385        0.06852
C         -0.44051        2.74183        0.26907
H         -0.09344        3.55195       -0.38326
H         -0.36919        3.10443        1.30295
C         -1.89155        2.41084       -0.07046
H         -2.00610        2.28422       -1.15507
H         -2.57171        3.19921        0.25898
O         -2.32642        1.22847        0.60628
C         -1.70527        0.00119        0.19942
C         -1.93285       -0.98496        1.35475
H         -3.01417       -1.04135        1.53023
H         -1.61336       -1.98046        1.02201
C         -1.21532       -0.60505        2.64647
H         -0.12677       -0.62752        2.52376
H         -1.47628       -1.30760        3.44391
H         -1.49836        0.39920        2.97775
C         -2.32410       -0.52839       -1.11578
H         -1.73499       -1.38980       -1.44449
H         -2.24853        0.25178       -1.87983
C         -3.78565       -0.94803       -0.95442
O         -4.03203       -2.18217       -0.82493
O         -4.65975       -0.03487       -0.94733
