18
id_2425_cb.log	Energy: -577439.0692711
C         -0.82433        1.21482        0.00881
H         -1.36573        2.15395        0.03252
C         -1.50785       -0.00001        0.02534
C         -0.82432       -1.21483        0.00881
H         -1.36571       -2.15396        0.03253
C          0.54960       -1.20875       -0.01638
C          1.37030        0.00001       -0.06509
C          0.54958        1.20875       -0.01638
N          1.19547        2.50412       -0.01022
O          2.32797        2.60060        0.44137
O          0.56868        3.46691       -0.44509
O          2.60325        0.00001       -0.20056
N          1.19549       -2.50410       -0.01021
O          2.32800       -2.60058        0.44136
O          0.56871       -3.46691       -0.44507
N         -2.94172       -0.00001        0.07661
O         -3.52900       -1.07812        0.09589
O         -3.52900        1.07809        0.09596
