27
id_2256_ca.log	Energy: -396699.4217859
N         -0.62560        2.44395       -0.00131
H         -1.54176        2.87432        0.09980
C         -0.48200        1.14850        0.00724
C         -1.69266        0.31515        0.03143
C         -1.70409       -0.87654        0.76999
H         -0.81878       -1.18532        1.31634
C         -2.86348       -1.64039        0.82815
H         -2.87605       -2.55425        1.41229
C         -4.00414       -1.23195        0.13859
H         -4.90469       -1.83643        0.17797
C         -3.99265       -0.05251       -0.60592
H         -4.87699        0.25692       -1.15254
C         -2.84400        0.72652       -0.65597
H         -2.82877        1.63150       -1.25648
C          0.85154        0.56684       -0.00623
C          1.06698       -0.67770       -0.62352
H          0.24002       -1.20409       -1.08830
C          2.33638       -1.22323       -0.68276
H          2.50871       -2.17573       -1.17480
C          3.41043       -0.53920       -0.10177
C          3.20990        0.69747        0.52787
H          4.05436        1.19903        0.98751
C          1.94420        1.24630        0.56683
H          1.79621        2.18867        1.08615
O          4.66884       -1.02910       -0.11157
H          4.68813       -1.89386       -0.55763
H          0.16952        3.06889       -0.11220
