22
id_251_ca.log	Energy: -542265.8997628
C          0.03562       -0.99834        0.10299
H         -0.58051       -1.89377        0.10630
C          1.41159       -1.14095       -0.03966
H          1.85555       -2.12487       -0.14647
C          2.21131       -0.00316       -0.04173
C          1.66371        1.26610        0.09517
H          2.30095        2.14396        0.09262
C          0.28441        1.39069        0.23459
H         -0.15182        2.37967        0.34192
C         -0.54624        0.26681        0.23968
C         -2.01668        0.44793        0.39022
C         -2.88180       -0.56254        1.11432
H         -3.70251       -0.16689        1.70448
H         -2.41130       -1.45955        1.50324
C         -2.96710       -0.43338       -0.36146
N         -4.17159        0.19609       -0.93368
H         -3.97355        0.61810       -1.84901
H         -4.53051        0.93894       -0.32007
Cl         3.94494       -0.17546       -0.21977
H         -2.33422        1.48188        0.49765
H         -2.57956       -1.21379       -1.00535
H         -4.92428       -0.49241       -1.05810
