27
id_2247_ca.log	Energy: -279296.9915042
C          3.23505       -1.72933        0.06682
H          2.98426       -2.32763       -0.81468
H          3.45400       -2.41359        0.89017
H          4.14412       -1.16175       -0.15478
C          2.08366       -0.79721        0.43968
H          2.35060       -0.22335        1.33266
H          1.19260       -1.38678        0.67631
C          1.79724        0.12972       -0.72708
H          1.48390       -0.43481       -1.60880
H          2.67132        0.73341       -0.98457
N          0.68155        1.12789       -0.46714
C          1.06925        2.17758        0.52518
H          1.94358        2.69085        0.12665
H          1.31070        1.71740        1.48033
H          0.23358        2.86799        0.63267
C         -0.60952        0.46760       -0.18895
C         -1.01509        0.21176        1.11466
H         -0.40802        0.50446        1.96415
C         -2.23137       -0.43778        1.31654
H         -2.56097       -0.64154        2.32973
C         -3.01734       -0.82062        0.23236
H         -3.96407       -1.32339        0.40039
C         -2.59011       -0.55621       -1.06733
H         -3.19953       -0.84820       -1.91589
C         -1.37761        0.09131       -1.28408
H         -1.03150        0.30786       -2.29143
H          0.55967        1.62293       -1.35974
