16
id_2248_cb.log	Energy: -308681.1068960
C         -1.35617        1.21770       -0.00142
H         -1.90423        2.15459        0.00040
C          0.02159        1.21837       -0.00057
H          0.57307        2.15087        0.00302
C          0.70699       -0.00000       -0.00123
C          0.02159       -1.21837       -0.00056
H          0.57307       -2.15087        0.00303
C         -1.35617       -1.21770       -0.00142
H         -1.90423       -2.15459        0.00042
C         -2.07465       -0.00000       -0.00384
N         -3.43197        0.00000       -0.04983
H         -3.92025       -0.85711        0.17599
H         -3.92025        0.85711        0.17600
N          2.14199       -0.00000        0.00132
O          2.73460        1.07609        0.00219
O          2.73460       -1.07609        0.00217
