27
id_2260_ca.log	Energy: -279306.7356695
C          3.81237       -1.51827       -0.28353
H          4.76220       -1.61562       -0.81507
H          3.14157       -2.30656       -0.63917
H          4.00042       -1.68721        0.78141
C          3.20359       -0.13920       -0.51667
H          3.02923        0.02122       -1.58665
H          3.89269        0.64110       -0.17453
C          1.88761       -0.01091        0.22973
H          2.02143       -0.11159        1.30991
H          1.16146       -0.75196       -0.11008
N          1.27789        1.33660       -0.00057
H          1.08313        1.44790       -1.00435
C          0.01693        1.59960        0.77884
H          0.27890        1.48727        1.83224
H         -0.24791        2.63944        0.58093
C         -1.08139        0.65771        0.37048
C         -1.76926        0.86547       -0.82835
H         -1.51787        1.72260       -1.44903
C         -2.77252       -0.01512       -1.22254
H         -3.30395        0.15279       -2.15396
C         -3.09846       -1.10578       -0.41671
H         -3.88418       -1.78976       -0.72203
C         -2.41866       -1.31498        0.78148
H         -2.67204       -2.16171        1.41146
C         -1.41059       -0.43634        1.17287
H         -0.87566       -0.59569        2.10557
H          1.96758        2.05844        0.24371
