24
id_286_ca.log	Energy: -382603.0221159
C         -5.01974       -0.00721        0.01413
H         -5.42532        0.64831       -0.76211
H         -5.39031        0.35742        0.97947
H         -5.41933       -1.01424       -0.13512
C         -3.51390       -0.01077       -0.00970
C         -2.79752        1.14268       -0.35058
H         -3.33850        2.04351       -0.63168
C         -1.40521        1.15253       -0.34921
H         -0.87430        2.05533       -0.64120
C         -0.68416        0.00221       -0.00147
C         -1.39644       -1.15463        0.33989
H         -0.85922       -2.05473        0.62862
C         -2.78939       -1.15838        0.33054
H         -3.32359       -2.06692        0.59916
C          0.79461        0.00780        0.00079
C          1.54126        1.12044        0.39468
H          1.04639        2.02781        0.73216
N          2.87522        1.14314        0.40075
C          3.47034        0.02002        0.00942
N          2.88465       -1.10664       -0.38641
C          1.54939       -1.09836       -0.38981
H          1.06602       -2.01017       -0.73167
O          4.81769        0.05756        0.02641
H          5.16193       -0.80034       -0.28134
