17
id_2018_cb.log	Energy: -514256.7026985
C          3.00202        0.00001       -0.53048
H          3.98271        0.00000       -0.99773
C          2.37015       -1.20659       -0.22500
H          2.85815       -2.14999       -0.45381
C          1.11302       -1.20528        0.37885
H          0.62630       -2.14648        0.62272
C          0.46819        0.00000        0.68811
C          1.11301        1.20528        0.37885
H          0.62630        2.14649        0.62271
C          2.37015        1.20660       -0.22501
H          2.85813        2.15001       -0.45382
C         -0.89980       -0.00001        1.28089
H         -1.09055        0.89214        1.88541
H         -1.09054       -0.89218        1.88537
S         -2.23370       -0.00001       -0.01551
O         -1.89072       -1.25688       -0.83376
O         -1.89076        1.25688       -0.83374
