18
id_230_cb.log	Energy: -205172.6430474
C          2.35486       -0.00000        0.02285
H          2.85687        0.88760       -0.37262
H          2.85687       -0.88760       -0.37263
H          2.46816       -0.00000        1.12080
N          0.95686       -0.00000       -0.38434
C          0.29042        1.18488        0.15744
H          0.39900        1.22674        1.25720
H          0.75435        2.08426       -0.26016
C         -1.18709        1.16625       -0.18907
H         -1.31749        1.20308       -1.28065
H         -1.69634        2.02404        0.25635
O         -1.81601        0.00000        0.32649
C         -1.18709       -1.16625       -0.18907
H         -1.69634       -2.02404        0.25635
H         -1.31749       -1.20308       -1.28065
C          0.29042       -1.18488        0.15744
H          0.75435       -2.08426       -0.26016
H          0.39900       -1.22674        1.25720
