24
id_2351_cb.log	Energy: -426042.7251692
C         -3.59516       -0.09100       -1.87186
H         -3.51326       -1.12968       -2.22468
H         -3.54357        0.57302       -2.73775
H         -4.57786        0.03041       -1.40691
N         -2.55562        0.27087       -0.91031
H         -1.65420        0.20553       -1.38436
C         -2.52842       -0.66614        0.21063
H         -3.52811       -0.68731        0.65818
H         -2.27279       -1.69444       -0.08757
C         -1.53991       -0.16041        1.26484
C         -0.10827       -0.24786        0.75693
C          0.50794       -1.49623        0.63323
H         -0.02852       -2.39230        0.93330
C          1.80405       -1.60938        0.13723
H          2.29941       -2.56946        0.03958
C          2.47994       -0.46093       -0.23691
C          1.87412        0.78117       -0.11651
C          0.58706        0.90098        0.37693
H          0.14403        1.88669        0.47011
F          2.56733        1.86855       -0.48828
F          3.73165       -0.52215       -0.71717
O         -1.89615        1.16008        1.63361
H         -2.21538        1.56754        0.80574
H         -1.63009       -0.78557        2.15950
