23
id_2347_cb.log	Energy: -1867804.0395789
C          3.22392        0.13718        1.81829
H          2.27511        0.62209        2.06872
H          3.91267        0.91224        1.46370
H          3.63775       -0.28462        2.73868
C          3.03583       -0.94692        0.76287
H          2.30472       -1.68919        1.11249
H          3.97881       -1.48046        0.60008
C          2.56776       -0.40891       -0.59238
C          1.25480        0.34586       -0.45353
C          1.22183        1.74062       -0.50407
H          2.14632        2.28763       -0.67058
C          0.02272        2.43311       -0.34556
H          0.00949        3.51762       -0.39005
C         -1.16738        1.74335       -0.13275
H         -2.10628        2.27183       -0.01082
C         -1.12388        0.35385       -0.08251
C          0.06143       -0.35112       -0.23867
H          0.05671       -1.43672       -0.19615
Br        -2.73868       -0.60805        0.20927
N          2.53419       -1.51640       -1.55402
H          2.09849       -1.18444       -2.41424
H          1.90251       -2.23199       -1.19246
H          3.31602        0.31064       -0.94596
