9
id_2423_ca.log	Energy: -167587.7934100
C          1.96432        0.03949       -0.00000
H          1.98047        1.12656       -0.00001
H          2.91737       -0.47998        0.00000
C          0.81397       -0.63415        0.00000
H          0.77070       -1.71869        0.00001
C         -0.47817        0.08671       -0.00000
O         -0.61427        1.29844        0.00000
O         -1.52515       -0.75396       -0.00000
H         -2.35383       -0.23607       -0.00000
