28
id_232_cb.log	Energy: -480479.3572285
C         -3.25676       -2.12281       -0.04189
H         -4.00775       -2.90241       -0.12961
C         -1.93569       -2.45791        0.34482
H         -1.68222       -3.49557        0.54168
C         -0.96950       -1.48752        0.46797
H          0.03735       -1.76676        0.75585
C         -1.27377       -0.12055        0.20780
C         -2.59820        0.20950       -0.20824
C         -3.57672       -0.81669       -0.31654
H         -4.58123       -0.54272       -0.62983
C         -2.92620        1.55734       -0.52156
H         -3.94548        1.78582       -0.82360
C         -1.97641        2.54510       -0.45579
H         -2.22830        3.57179       -0.70232
C         -0.65605        2.22552       -0.06181
H          0.08505        3.01864       -0.00839
C         -0.30757        0.93773        0.28905
C          1.07247        0.70258        0.81291
O          1.26112       -0.05336        1.76034
C          2.23239        1.45430        0.19305
H          1.96002        1.81014       -0.80287
H          2.42707        2.33649        0.81774
C          3.47197        0.57126        0.13176
H          3.81761        0.30633        1.13597
H          4.29451        1.11104       -0.34989
C          3.23815       -0.72787       -0.64611
O          2.11821       -0.89787       -1.20458
O          4.19501       -1.55535       -0.67793
