15
id_2407_ca.log	Energy: -156904.3505255
C          1.70770       -0.62258        0.40028
H          1.01918       -1.36999        0.79159
H          2.08176        0.01364        1.20138
H          2.53120       -1.11007       -0.11842
N          0.98170        0.23365       -0.57828
H          1.65267        0.83657       -1.06545
C         -0.09770        1.08178        0.01415
H          0.35050        1.70491        0.78945
H         -0.47034        1.71027       -0.79593
C         -1.20488        0.19766        0.56278
H         -2.05603        0.83881        0.80763
H         -0.89224       -0.30942        1.47963
O         -1.60121       -0.73950       -0.42952
H         -1.25136       -1.60866       -0.18154
H          0.54176       -0.36685       -1.28744
