19
id_2429_cb.log	Energy: -416637.6691903
C          0.64601        2.27536        0.12310
H          0.75842        3.33220        0.34232
C         -0.59423        1.76897       -0.26420
H         -1.44708        2.43906       -0.34208
C         -0.76939        0.41027       -0.55498
C          0.32902       -0.44239       -0.45335
H          0.22990       -1.50058       -0.67163
C          1.55606        0.08500       -0.06368
C          1.74664        1.43090        0.22965
H          2.71977        1.80295        0.52703
N          2.70215       -0.81999        0.03771
O          2.54189       -1.99874       -0.24570
O          3.77570       -0.36124        0.40249
C         -2.12322       -0.12461       -0.92533
H         -2.02346       -1.02857       -1.53697
H         -2.67420        0.60830       -1.52320
C         -3.01044       -0.50117        0.27763
O         -4.21091       -0.78575        0.00434
O         -2.50181       -0.52020        1.42981
