17
id_2317_ca.log	Energy: -309379.7577981
C         -2.66324       -0.28651       -0.00000
H         -3.72668       -0.50085       -0.00000
C         -1.73216       -1.29354        0.00000
H         -2.02101       -2.34076        0.00000
C         -0.35384       -0.95978        0.00000
C         -0.03313        0.41681        0.00000
C          1.34552        0.78232        0.00000
C          2.29238       -0.21300       -0.00000
H          3.35124        0.02183       -0.00000
C          1.85225       -1.55375       -0.00000
H          2.60033       -2.34274        0.00000
N          0.59152       -1.94462        0.00000
O          1.69391        2.08451        0.00000
H          0.87466        2.61970       -0.00000
N         -0.95745        1.41315        0.00000
C         -2.22632        1.06104        0.00000
H         -2.95700        1.86552       -0.00000
