11
id_2081_cb.log	Energy: -246117.9435644
C         -0.24910       -0.72552        0.50705
H         -0.34525       -1.72820        0.07375
H          0.13055       -0.82342        1.53245
C         -1.61578       -0.02030        0.48060
H         -1.49006        0.95966        0.98498
H         -2.27753       -0.60837        1.14753
O         -2.13634        0.11213       -0.80610
C          0.77462        0.01486       -0.29998
H          0.52217        0.17194       -1.34821
F          1.02060        1.25500        0.25456
F          1.98967       -0.64198       -0.26208
