22
id_2336_ca.log	Energy: -206846.3589845
C         -1.27426        0.55151       -1.05812
H         -0.83585        0.55309       -2.06089
H         -2.32148        0.85252       -1.15074
C         -0.51367        1.48727       -0.07355
H         -1.19605        2.20373        0.39155
H          0.27512        2.07472       -0.55327
C          0.00184        0.52011        1.00790
C         -1.17608       -0.46741        1.10575
H         -0.97195       -1.32101        1.76021
H         -2.10108        0.02403        1.42169
C         -1.15690       -0.83310       -0.39041
C          0.29084       -1.32980       -0.55463
H          0.65298       -1.23539       -1.58403
H          0.39436       -2.37503       -0.25416
C          1.07096       -0.41663        0.42467
N          2.18436        0.31600       -0.26537
H          2.92903       -0.33506       -0.53976
H          2.59941        1.02779        0.34759
H          0.31746        1.00379        1.93415
H         -1.90575       -1.55442       -0.72147
H          1.55591       -0.98652        1.21739
H          1.86107        0.78410       -1.12031
