41
id_2380_cb.log	Energy: -756320.4159377
C         -0.66445       -3.69503        0.98164
H         -0.43262       -4.51053        1.65937
C         -1.28162       -3.95393       -0.23893
H         -1.53110       -4.96942       -0.52777
C         -1.58461       -2.89340       -1.08995
H         -2.07472       -3.07287       -2.04241
C         -1.24045       -1.59280       -0.73359
C         -0.62366       -1.31946        0.49804
C         -0.35247       -2.39076        1.35799
H          0.10500       -2.20781        2.32420
N         -0.31037        0.01225        0.83533
C         -1.26977        1.00736        0.56250
C         -1.58329        2.01905        1.47899
H         -1.10478        2.03688        2.45202
C         -2.51624        3.00160        1.15530
H         -2.73162        3.78326        1.87692
C         -3.18357        2.97337       -0.06574
H         -3.91634        3.73398       -0.31327
C         -2.91016        1.94889       -0.96948
H         -3.42852        1.90183       -1.92270
C         -1.95098        0.98745       -0.66626
S         -1.50302       -0.24708       -1.86321
C          0.72133        0.26960        1.83470
H          0.80991        1.35294        1.92773
H          0.44491       -0.11086        2.82759
C          2.08861       -0.28740        1.44459
H          2.09084       -1.38165        1.47111
H          2.79295        0.05352        2.22751
N          2.53239        0.13729        0.12600
C          3.91103       -0.28951       -0.12685
H          4.55635       -0.03543        0.73439
H          3.96294       -1.37213       -0.27560
C          4.33059        0.52342       -1.35436
H          5.40331        0.72851       -1.35041
H          4.09908       -0.02307       -2.27212
C          3.47356        1.81080       -1.25669
H          2.84624        1.92365       -2.14444
H          4.08086        2.71375       -1.16358
C          2.60623        1.59517       -0.00919
H          1.60811        2.03467       -0.10145
H          3.09287        2.04074        0.87866
