26
id_2096_cb.log	Energy: -372666.1802060
C          0.65345        1.93692       -0.18233
H          0.35005        2.97966       -0.23684
C          2.00301        1.60998       -0.00009
H          2.76222        2.38344        0.08870
C          2.36819        0.27946        0.08080
C          1.42633       -0.78007       -0.01190
C          0.06879       -0.42458       -0.21573
C         -0.30792        0.92986       -0.29628
C         -1.75840        1.32081       -0.51776
H         -1.94228        1.52217       -1.58013
H         -1.98652        2.24833        0.02070
C         -2.72820        0.22351       -0.11096
C         -2.33311       -1.10763       -0.73266
H         -3.07516       -1.87614       -0.49139
H         -2.35566       -0.95970       -1.81788
C         -0.93796       -1.55238       -0.28803
H         -0.57421       -2.32867       -0.97066
H         -0.99793       -2.04452        0.69519
N         -2.71998        0.09436        1.39145
H         -3.29957       -0.69478        1.70010
H         -3.08357        0.94620        1.83396
H         -1.76895       -0.05690        1.75168
O          1.85812       -2.01629        0.09888
O          3.68862       -0.08654        0.27379
H          3.66512       -1.06566        0.30611
H         -3.75260        0.49338       -0.37137
