52
id_2076_ca.log	Energy: -1340499.0517746
C          4.86493       -0.18628       -3.05662
H          5.24606       -0.84727       -3.83798
H          3.78334       -0.09375       -3.17847
H          5.30338        0.80489       -3.20181
C          5.24039       -0.75596       -1.71210
C          6.25665       -1.72299       -1.65794
H          6.73504       -2.01565       -2.58824
C          6.66592       -2.29828       -0.46330
H          7.46680       -3.03096       -0.46143
C          6.03329       -1.95832        0.73198
H          6.31031       -2.43282        1.66838
C          5.00723       -1.02317        0.71838
C          4.64591       -0.40209       -0.49172
S          3.50323        0.96955       -0.40446
O          3.70906        1.89664       -1.50829
O          3.55446        1.52554        0.94742
N          2.03696        0.17047       -0.67037
H          2.04335       -0.79075       -0.31876
C          0.85717        0.91229       -0.50423
O          0.87075        2.12893       -0.47855
N         -0.24679        0.09902       -0.42738
H         -0.10190       -0.90310       -0.52631
C         -1.58081        0.46097       -0.28392
N         -1.90283        1.72454       -0.09381
C         -3.23063        1.95432        0.02978
N         -4.17275        0.97945        0.00037
C         -3.68795       -0.22950       -0.19010
N         -2.41496       -0.58515       -0.34666
O         -4.53763       -1.26911       -0.23969
C         -5.92046       -0.99086       -0.09078
H         -6.28851       -0.34202       -0.88912
H         -6.14090       -0.55798        0.88781
C         -6.60912       -2.32998       -0.19674
F         -6.20475       -3.18796        0.75493
F         -6.38515       -2.92619       -1.37992
F         -7.93645       -2.17881       -0.06594
N         -3.63916        3.22017        0.18429
C         -5.03084        3.49543        0.53032
H         -5.70437        2.96954       -0.14590
H         -5.24997        3.19021        1.55990
H         -5.19902        4.56759        0.43369
C         -2.66078        4.27955        0.41493
H         -2.28920        4.25513        1.44602
H         -1.81846        4.17287       -0.26713
H         -3.14762        5.23769        0.23391
C          4.26896       -0.80807        2.00524
O          4.79675       -0.52321        3.05967
O          2.96865       -1.04585        1.85407
C          2.12625       -0.73556        2.97759
H          2.38356       -1.37423        3.82427
H          1.11043       -0.93481        2.64163
H          2.24701        0.31712        3.24270
