26
id_2268_cb.log	Energy: -326073.7731554
C          3.61888        0.65323        0.62598
H          3.43241        1.72226        0.53066
H          4.66530        0.47244        0.37076
H          3.46025        0.36172        1.67520
N          2.77115       -0.12164       -0.28343
C          3.13670       -1.52936       -0.23576
H          4.21387       -1.61370       -0.39265
H          2.63120       -2.08161       -1.03109
H          2.88961       -1.99844        0.72973
C          1.39142        0.14544       -0.17321
C          0.94963        1.50660       -0.22730
H          1.68063        2.29910       -0.34548
C         -0.37749        1.82563       -0.16690
H         -0.68907        2.86589       -0.21533
C         -1.37449        0.81691       -0.05682
C         -2.75851        1.11938        0.00691
H         -3.06609        2.16157       -0.02620
C         -3.69019        0.11487        0.10930
H         -4.74834        0.35193        0.15831
C         -3.27130       -1.23758        0.15110
H         -4.01405       -2.02550        0.23270
C         -1.93674       -1.55698        0.08817
H         -1.61416       -2.59455        0.11963
C         -0.95039       -0.53903       -0.01807
C          0.43635       -0.84832       -0.07034
H          0.71719       -1.89444       -0.02071
