16
id_377_ca.log	Energy: -396399.8258199
C          2.97969       -0.80196        0.18172
H          3.04145       -0.78867        1.27442
H          3.98801       -0.67027       -0.22221
H          2.60554       -1.77992       -0.13714
C          2.07628        0.30458       -0.31663
H          2.01532        0.29775       -1.41422
H          2.45152        1.28943       -0.00389
O          0.77429        0.10734        0.22347
C         -0.13926        1.10199       -0.20362
H          0.21013        2.09162        0.12722
H         -0.20312        1.10437       -1.30120
C         -1.49376        0.82436        0.41106
H         -2.19263        1.61148        0.11646
H         -1.42502        0.82286        1.50203
S         -2.24675       -0.74138       -0.15422
H         -1.27529       -1.54909        0.30318
