22
id_326_ca.log	Energy: -266839.3234958
C         -3.73066       -0.25919        0.24729
H         -3.99789        0.56835       -0.41982
H         -4.35161       -0.18207        1.14552
H         -3.98713       -1.19580       -0.26094
C         -2.24595       -0.21880        0.59359
H         -1.99674       -1.03582        1.28197
H         -2.01076        0.71654        1.11824
C         -1.36345       -0.34585       -0.65695
H         -1.64049        0.43492       -1.37989
H         -1.58021       -1.30190       -1.14719
C          0.11153       -0.28934       -0.34203
C          0.86490       -1.46394       -0.23557
H          0.36499       -2.41309       -0.41778
C          2.22029       -1.44586        0.09032
H          2.77627       -2.37562        0.16342
C          2.85251       -0.22266        0.31665
H          3.90849       -0.18705        0.56851
C          2.12909        0.96281        0.21858
H          2.60152        1.92618        0.38927
C          0.77194        0.92617       -0.10361
O          0.13221        2.14412       -0.17602
H         -0.80532        2.03228       -0.40268
