17
id_316_cb.log	Energy: -408064.4944553
C          1.43677        1.25360       -0.60932
H          2.52578        1.24129       -0.47552
H          1.04819        2.16713       -0.14674
H          1.23296        1.30134       -1.68660
C          0.82431        0.00000        0.02225
C          1.43676       -1.25362       -0.60928
H          2.52577       -1.24130       -0.47549
H          1.23295       -1.30139       -1.68656
H          1.04818       -2.16714       -0.14668
C          1.05997        0.00002        1.53564
H          2.13803        0.00002        1.74091
H          0.62681       -0.88858        2.00889
H          0.62682        0.88864        2.00887
P         -0.98521       -0.00000       -0.30489
O         -1.60918       -1.30695        0.19488
O         -1.60918        1.30695        0.19488
H         -1.02726       -0.00000       -1.72147
