23
id_342_cb.log	Energy: -395391.4155317
C         -0.95908       -3.77977        0.00000
H         -0.95187       -4.86578        0.00000
C         -2.20997       -3.08733        0.00000
H         -3.13285       -3.66012        0.00000
C         -2.25205       -1.72086        0.00000
H         -3.19721       -1.18468        0.00000
C         -1.04279       -0.95454        0.00000
C          0.20991       -1.65090        0.00000
C          0.21593       -3.08229        0.00000
H          1.17421       -3.59625        0.00000
C          1.37644       -0.88508        0.00000
H          2.34689       -1.37929        0.00000
C          1.31107        0.51044       -0.00000
C          2.48192        1.32821       -0.00000
H          3.45922        0.85380       -0.00000
C          2.33570        2.69244       -0.00000
H          3.21995        3.32662       -0.00000
C          1.06260        3.31244       -0.00000
H          0.99536        4.39791       -0.00000
C         -0.13435        2.58529       -0.00000
C          0.00000        1.11292       -0.00000
N         -1.12328        0.38698        0.00000
O         -1.30284        3.13914       -0.00000
