49
id_30_ca.log	Energy: -650437.4483317
C          1.99918        3.49513        0.88663
H          1.00906        3.34803        0.43998
H          2.24809        4.55584        0.88804
H          1.99772        3.11488        1.91336
O          3.00582        2.85743        0.11096
C          2.89622        1.51349       -0.06306
C          3.92272        0.92968       -0.85365
H          4.69821        1.57619       -1.25172
C          3.92109       -0.41461       -1.08921
H          4.70042       -0.87936       -1.68445
C          2.89480       -1.24846       -0.56502
C          1.86197       -0.65983        0.21692
C          1.89206        0.74004        0.47227
H          1.13712        1.17931        1.10891
C          0.83245       -1.53078        0.69632
C          0.91904       -2.86799        0.39166
H          0.15868       -3.56245        0.73760
C          2.00131       -3.34877       -0.37970
H          2.06224       -4.40937       -0.61042
N          2.95645       -2.58147       -0.85193
C         -0.38812       -1.03511        1.45077
C         -1.30576       -0.18199        0.56541
C         -2.58372        0.29253        1.27153
H         -2.84084       -0.39025        2.08935
H         -2.40003        1.27939        1.70150
C         -3.72295        0.32699        0.24253
C         -4.10904       -1.11803       -0.09842
H         -4.78850       -1.13271       -0.95538
H         -4.61806       -1.58648        0.74705
C         -2.82805       -1.90693       -0.41723
H         -2.91701       -2.52149       -1.31312
H         -2.50364       -2.53829        0.41054
N         -1.72314       -0.91738       -0.68542
C         -2.18656        0.08836       -1.70733
H         -1.29830        0.60654       -2.06925
H         -2.61299       -0.48788       -2.52946
C         -3.23167        1.01473       -1.05540
C         -2.78547        2.42955       -0.77898
H         -3.57843        3.05220       -0.36319
C         -1.58578        2.97553       -0.96832
H         -1.41115        4.01832       -0.71974
H         -0.73640        2.43374       -1.37844
O         -0.08022       -0.19398        2.54764
H          0.43982       -0.71388        3.18229
H         -0.94397       -1.91401        1.80329
H         -0.73460        0.67536        0.20191
H         -4.58257        0.86965        0.64243
H         -4.09103        1.07029       -1.73355
H         -0.91421       -1.42039       -1.07116
