14
id_354_cb.log	Energy: -239913.0019739
C         -2.86537        0.37810        0.05498
H         -3.46548        0.71537        0.90546
H         -3.40764       -0.42597       -0.45273
H         -2.74913        1.21581       -0.63987
C         -1.51584       -0.10779        0.53553
H         -1.62643       -0.94219        1.24262
H         -0.96821        0.69749        1.04250
O         -0.76792       -0.55715       -0.59199
C          0.53795       -0.96684       -0.24670
H          0.51931       -1.60894        0.64439
H          0.92028       -1.56269       -1.08217
C          1.53134        0.18118       -0.01149
O          1.19769        1.35375       -0.32163
O          2.65134       -0.17120        0.45686
