11
id_393_cb.log	Energy: -417908.6894591
C          0.00000        0.53533        0.00000
H          0.29087        1.12695        0.87682
H          0.29087        1.12695       -0.87682
C          0.70173       -0.81652        0.00000
H          0.37218       -1.38167       -0.87931
H          0.37218       -1.38167        0.87931
S          2.53039       -0.65474        0.00000
C         -1.50013        0.44051        0.00000
O         -2.15296       -0.58827        0.00000
O         -2.09207        1.65054        0.00000
H         -3.06172        1.53122        0.00000
