15
id_395_ca.log	Energy: -523805.8561360
C         -0.29307        2.15196       -0.00001
H         -0.34437        3.23572       -0.00001
C          0.94723        1.52113       -0.00000
H          1.87109        2.08630       -0.00001
C          0.95758        0.13189        0.00000
C         -0.19456       -0.64449        0.00001
H         -0.12358       -1.72697        0.00002
C         -1.42747        0.00902        0.00000
C         -1.47131        1.40910       -0.00001
H         -2.42731        1.92500       -0.00001
S         -2.89402       -0.98930        0.00000
H         -3.76351        0.03550        0.00002
N          2.25199       -0.55858        0.00000
O          2.25893       -1.78031       -0.00002
O          3.26827        0.11926        0.00002
