11
id_371_ca.log	Energy: -334625.3794386
C         -1.20551        0.48728       -0.37093
H         -1.07055        0.38725       -1.45300
H         -1.90843        1.31109       -0.21471
C          0.11497        0.88964        0.27986
H         -0.00546        0.94525        1.36554
H          0.42916        1.86770       -0.09333
S          1.41308       -0.34720       -0.11345
H          2.36111        0.14827        0.69872
N         -1.82231       -0.73918        0.13390
H         -1.91955       -0.66420        1.14646
H         -1.19619       -1.52742       -0.02539
