14
id_386_cb.log	Energy: -429951.1831046
C          1.93172        1.19986       -0.14773
H          2.45371        2.14197       -0.29115
C          2.57736       -0.01558       -0.38136
H          3.60951       -0.05875       -0.71309
C          1.85913       -1.18544       -0.16663
H          2.33052       -2.15218       -0.32714
N          0.58300       -1.21614        0.24529
C         -0.04272       -0.04664        0.45802
C          0.61016        1.18205        0.27529
H          0.07007        2.10556        0.46573
C         -1.48294       -0.08605        0.87212
H         -1.67758        0.74676        1.55613
H         -1.66302       -1.01745        1.41779
S         -2.62003        0.02861       -0.58022
