21
id_358_cb.log	Energy: -739334.3049113
C         -2.09509       -0.60027        1.19843
H         -2.49263       -0.08617        2.07839
H         -1.79759       -1.60711        1.50289
C         -3.15454       -0.64597        0.10053
H         -2.75199       -1.22392       -0.74209
H         -4.01588       -1.20283        0.48869
S         -3.66950        1.02631       -0.46492
N         -0.89338        0.11916        0.77647
H         -1.13109        1.05861        0.45725
C          0.01075       -0.52614       -0.02674
O          0.14545       -1.76351       -0.03415
N          0.77965        0.27935       -0.82017
H          0.74429        1.27462       -0.62480
C          2.02108       -0.22155       -1.39116
H          2.38816        0.54126       -2.08094
H          1.80328       -1.12278       -1.97158
C          3.09325       -0.55465       -0.35833
H          4.00738       -0.86146       -0.87437
H          2.77723       -1.37926        0.28432
S          3.57212        0.86442        0.68820
H          2.40674        0.96718        1.35249
