12
id_387_ca.log	Energy: -324562.2394647
C          1.09123       -1.25824        0.11861
H          0.62720       -2.16418       -0.28104
H          1.03832       -1.29525        1.21321
H          2.14886       -1.25350       -0.16973
C          0.40762       -0.00134       -0.40579
H          0.42813       -0.00432       -1.50081
C          1.08075        1.26410        0.11157
H          2.13793        1.26717       -0.17811
H          1.02966        1.30503        1.20623
H          0.60832        2.16447       -0.29080
S         -1.39099       -0.00619       -0.01658
H         -1.24015        0.05247        1.32011
