15
id_351_ca.log	Energy: -263976.5516211
C          2.56428       -0.04656       -0.00000
H          3.64999       -0.07781       -0.00000
C          1.83451       -1.23620       -0.00001
H          2.34942       -2.19192       -0.00002
C          0.44234       -1.20074       -0.00001
H         -0.12669       -2.12436       -0.00001
C         -0.21850        0.03267        0.00000
C          0.51265        1.22499        0.00001
H         -0.01116        2.17587        0.00001
C          1.90357        1.18357        0.00001
H          2.47251        2.10813        0.00001
C         -1.70150        0.11525       -0.00000
O         -2.33153        1.15923       -0.00002
O         -2.30428       -1.08169        0.00002
H         -3.27161       -0.94817        0.00001
