17
id_306_ca.log	Energy: -371203.0547393
C          0.53051       -1.43109        0.00001
H          1.25513       -2.23595        0.00001
C         -0.83161       -1.70219        0.00001
H         -1.21358       -2.71603        0.00001
C         -1.71583       -0.63791        0.00001
C         -1.27206        0.68009       -0.00000
C          0.07647        0.97070       -0.00000
H          0.43455        1.99398       -0.00001
C          0.95306       -0.10784        0.00000
N          2.38822        0.17313        0.00000
O          3.15624       -0.77327       -0.00004
O          2.74304        1.33988        0.00003
N         -2.27809        1.73600       -0.00002
H         -2.88676        1.68045       -0.83055
H         -1.84014        2.66786       -0.00002
F         -3.03009       -0.84423        0.00001
H         -2.88677        1.68047        0.83052
