20
id_327_ca.log	Energy: -266090.1826372
C          1.75442       -1.58930       -0.05185
H          2.50596       -2.37249       -0.09973
C          0.39802       -1.92689        0.00534
H          0.08670       -2.96803        0.00624
C         -0.54088       -0.89989        0.05358
C         -0.14612        0.44269        0.04825
C          1.20784        0.76269        0.00370
C          2.16296       -0.25585       -0.05246
H          3.21588        0.00747       -0.09889
O          1.66024        2.06372        0.00882
H          0.90608        2.67657        0.03496
C         -1.34443        1.36080        0.12217
H         -1.47314        1.73446        1.14723
H         -1.26638        2.23386       -0.53493
C         -2.50456        0.42390       -0.27871
H         -3.45597        0.71647        0.17231
H         -2.62347        0.45112       -1.36757
C         -2.04833       -0.98694        0.14477
H         -2.46873       -1.77976       -0.48098
H         -2.34247       -1.19660        1.18204
