12
id_392_cb.log	Energy: -371450.4852577
C          0.41837        0.69866       -0.21497
H          0.36569        0.66104       -1.31148
H          0.09860        1.70491        0.08460
C          1.86179        0.51765        0.22097
H          1.93178        0.52756        1.31737
H          2.48306        1.33340       -0.16943
O          2.34642       -0.73467       -0.27915
H          3.27317       -0.83379       -0.01161
C         -0.53808       -0.33121        0.38376
H         -0.44272       -0.29174        1.47751
H         -0.21862       -1.33477        0.07952
S         -2.29467       -0.07499       -0.09824
