12
id_393_ca.log	Energy: -418202.4473010
C          0.20437       -0.56671       -0.19218
H          0.05866       -1.46782        0.41030
H          0.09806       -0.85898       -1.24514
C         -0.80465        0.51821        0.16426
H         -0.70173        1.37460       -0.50336
H         -0.66308        0.84874        1.19543
S         -2.48589       -0.18510       -0.01956
H         -3.15455        0.94426        0.26670
C          1.63987       -0.14927       -0.01558
O          2.55663       -0.92944        0.16677
O          1.83263        1.17209       -0.10952
H          2.78526        1.36627       -0.00802
