12
id_357_ca.log	Energy: -308692.5362179
C         -1.66871       -1.06892        0.01616
H         -1.69478       -1.10815        1.10911
H         -1.26657       -2.01033       -0.36668
H         -2.68819       -0.94884       -0.35720
C         -0.83461        0.10653       -0.45159
C          0.61660       -0.04456       -0.01776
F          0.74499       -0.17336        1.31557
F          1.19348       -1.12448       -0.57656
F          1.35536        1.02512       -0.37369
O         -1.35200        1.29165        0.12177
H         -1.03508        2.05910       -0.38259
H         -0.82347        0.17128       -1.54556
