24
id_301_ca.log	Energy: -254648.5025582
C         -2.47971       -1.20365        1.01218
H         -3.27931       -1.31853        1.74775
H         -1.53467       -1.09047        1.54883
H         -2.43951       -2.11269        0.40425
C         -2.78690        0.00579        0.15833
H         -2.75556        0.93717        0.72530
H         -3.75354       -0.07936       -0.33923
N         -1.77333        0.15687       -0.95421
H         -1.80737       -0.68706       -1.54207
C         -0.39598        0.37768       -0.49433
C         -0.04596        1.63686       -0.03179
H         -0.76784        2.44840       -0.03621
C          1.25497        1.82293        0.43004
H          1.55924        2.79821        0.79506
C          2.16146        0.76673        0.42438
H          3.17278        0.92347        0.78975
C          1.79687       -0.49960       -0.04550
C          0.49312       -0.68744       -0.50858
H          0.17396       -1.65919       -0.87770
C          2.79236       -1.62800       -0.06928
H          3.36231       -1.66522        0.86330
H          3.50924       -1.49122       -0.88603
H          2.29607       -2.59044       -0.21410
H         -2.06388        0.94108       -1.55214
