22
id_304_cb.log	Energy: -357991.6155464
C         -4.82883       -0.07159        0.00001
H         -5.00629        0.54233        0.88811
H         -5.54886       -0.89297        0.00008
H         -5.00631        0.54220       -0.88818
C         -3.41461       -0.62255        0.00003
H         -3.25327       -1.25351       -0.88261
H         -3.25326       -1.25342        0.88274
N         -2.45520        0.47032       -0.00003
H         -2.81719        1.41656        0.00002
C         -1.11736        0.30563       -0.00002
C         -0.53131       -0.98581       -0.00001
H         -1.15936       -1.86879       -0.00000
C          0.84013       -1.12831       -0.00000
H          1.28761       -2.11515        0.00000
C          1.65542        0.00613       -0.00000
C          1.10216        1.29418       -0.00001
H          1.75073        2.16211       -0.00001
C         -0.26347        1.44119       -0.00002
H         -0.70780        2.43186       -0.00002
N          3.07749       -0.14859        0.00001
O          3.55389       -1.28260       -0.00002
O          3.78426        0.85804        0.00004
