33
id_376_ca.log	Energy: -596635.3737458
C          0.15161        1.22962       -0.08465
H         -0.47119        2.11646       -0.09804
C          1.53934        1.37460        0.04004
C          2.39636        0.29903        0.05238
H          3.46836        0.42231        0.14325
C          1.83404       -0.96942       -0.05998
C          0.43844       -1.16108       -0.17490
C         -0.41447       -0.02524       -0.19197
C         -1.90702       -0.24318       -0.29820
H         -2.06503       -1.07930       -0.99320
C         -2.49291       -0.65653        1.06682
H         -1.94935       -1.51914        1.46815
H         -2.34727        0.17673        1.76954
C         -3.98444       -0.97572        0.94402
H         -4.39030       -1.23901        1.92751
H         -4.10810       -1.85725        0.29897
C         -4.75881        0.20040        0.34541
H         -5.81482       -0.06548        0.22045
H         -4.72148        1.04839        1.04422
C         -4.15839        0.63280       -0.99430
H         -4.69627        1.50195       -1.38943
H         -4.27671       -0.17884       -1.72602
C         -2.67176        0.96630       -0.84677
H         -2.57255        1.81444       -0.15514
H         -2.24652        1.27749       -1.80882
O         -0.15230       -2.35000       -0.27800
H          0.52043       -3.06428       -0.25802
N          2.75095       -2.09158       -0.05832
O          3.94560       -1.87608        0.03329
O          2.28773       -3.23040       -0.15096
N          2.10292        2.71238        0.15645
O          1.33575        3.66434        0.14497
O          3.31593        2.82594        0.26099
