15
id_348_ca.log	Energy: -216906.0935699
C         -2.35923       -0.35438        0.00002
H         -2.24953       -0.99843       -0.87880
H         -3.36740        0.06444        0.00016
H         -2.24933       -0.99859        0.87869
C         -1.34448        0.75010       -0.00000
H         -1.74731        1.76256       -0.00002
C         -0.00162        0.66060        0.00000
C          0.88412        1.87943       -0.00001
H          1.53315        1.90014        0.88178
H          0.27345        2.78564        0.00001
H          1.53311        1.90016       -0.88184
C          0.66053       -0.66453       -0.00000
O          0.10239       -1.75154       -0.00004
O          2.00472       -0.56998        0.00003
H          2.38112       -1.47109        0.00002
