17
id_350_cb.log	Energy: -288349.7778201
C          2.80917        0.03885       -0.46070
H          3.82229        0.05741       -0.85204
C          2.18622       -1.17841       -0.18169
H          2.71361       -2.11253       -0.35466
C          0.88620       -1.20044        0.32453
H          0.40454       -2.15071        0.54415
C          0.19048       -0.00901        0.55964
C          0.82467        1.20704        0.27864
H          0.29443        2.13920        0.46160
C          2.12410        1.23259       -0.22802
H          2.60286        2.18508       -0.43820
C         -1.23695       -0.03261        1.05668
H         -1.43316        0.84364        1.67995
H         -1.41386       -0.93917        1.64198
C         -2.18966       -0.02061       -0.14901
O         -2.62886        1.09870       -0.53584
O         -2.44064       -1.12960       -0.69956
