21
id_311_cb.log	Energy: -588175.3027583
C          2.67617        1.70378        0.01174
H          2.95742        2.75174        0.04351
C          3.66618        0.73302        0.03300
H          4.71424        1.01373        0.07982
C          3.31991       -0.62773       -0.00620
C          1.96540       -0.97637       -0.05921
H          1.65878       -2.01745       -0.08315
C          1.00178        0.02073       -0.08111
C          1.32087        1.37355       -0.04947
H          0.56732        2.14940       -0.06963
O         -0.31060       -0.47139       -0.14656
C         -1.35337        0.37130        0.00819
C         -2.64404       -0.45787        0.00533
F         -3.69059        0.35013        0.14983
F         -2.63082       -1.33033        1.00804
F         -2.76297       -1.11722       -1.14279
F         -1.29870        1.05783        1.16565
F         -1.44151        1.27736       -0.98766
N          4.30139       -1.60934       -0.05255
H          3.99946       -2.51421        0.29222
H          5.18163       -1.32909        0.36623
