23
id_353_cb.log	Energy: -254353.7531791
C          2.21632       -1.18986       -0.67300
H          1.33049       -1.22976       -1.32774
H          2.22144       -2.08833       -0.04840
H          3.10430       -1.20979       -1.31209
N          2.25748       -0.00000        0.16791
C          2.21632        1.18986       -0.67300
H          2.22145        2.08833       -0.04841
H          1.33049        1.22975       -1.32774
H          3.10430        1.20977       -1.31209
C          1.17279        0.00000        1.16244
H          1.31093       -0.88466        1.79341
H          1.31093        0.88467        1.79340
C         -0.23859        0.00000        0.60961
C         -0.89872       -1.20220        0.33513
H         -0.40092       -2.14396        0.55624
C         -2.18281       -1.20544       -0.20644
H         -2.68202       -2.14810       -0.41009
C         -2.82738       -0.00000       -0.48000
H         -3.82918       -0.00000       -0.89865
C         -2.18281        1.20544       -0.20644
H         -2.68203        2.14809       -0.41010
C         -0.89872        1.20220        0.33513
H         -0.40092        2.14397        0.55624
