15
id_328_ca.log	Energy: -442860.5295729
C         -2.42952       -0.68654       -0.24243
H         -3.21630       -1.33027        0.16177
H         -2.52910       -0.67265       -1.33308
H         -2.60503        0.32900        0.12955
C         -1.05337       -1.20448        0.17038
H         -0.91368       -2.22967       -0.18577
H         -0.96209       -1.22074        1.26278
C          0.06888       -0.35050       -0.41069
C          0.02419        1.07045        0.10563
O         -0.24233        1.37117        1.25374
O          0.33992        1.97317       -0.82904
H          0.34467        2.86537       -0.42879
S          1.74174       -1.00483       -0.03360
H          1.55616       -1.06203        1.29899
H          0.01570       -0.32994       -1.50278
