55
id_33_ca.log	Energy: -1074509.4213702
C         -4.49885       -2.50644       -0.52720
H         -3.43162       -2.27959       -0.62548
H         -4.68876       -3.44678       -1.05439
H         -4.71328       -2.66531        0.53564
C         -5.36157       -1.38380       -1.09524
H         -6.42216       -1.64716       -1.00377
H         -5.15551       -1.25145       -2.16587
C         -5.15576       -0.04147       -0.38892
H         -5.34084       -0.16935        0.68393
C         -6.08350        1.04419       -0.93430
H         -5.86190        1.19406       -2.00019
H         -7.10935        0.66378       -0.87465
C         -5.97467        2.36665       -0.18121
H         -6.69187        3.09625       -0.56993
H         -4.97356        2.80083       -0.27572
H         -6.18128        2.22449        0.88570
N         -3.76818        0.40854       -0.51758
H         -3.51956        0.93734       -1.34988
C         -2.84418        0.28483        0.44152
O         -3.02791       -0.29493        1.52239
C         -1.53975        0.92779        0.13023
C         -0.30717        0.74637        0.72478
N          0.51249        1.60929        0.06042
N         -0.17688        2.28361       -0.86755
N         -1.40315        1.86775       -0.83903
C          1.91648        1.83992        0.22014
C          2.72291        1.81623       -0.91511
H          2.28642        1.60701       -1.88684
C          4.08854        2.04823       -0.77118
H          4.72957        2.02580       -1.64777
C          4.63172        2.28456        0.49228
H          5.69897        2.45294        0.60028
C          3.80634        2.31092        1.61715
H          4.22441        2.51162        2.59855
C          2.43464        2.10165        1.48667
H          1.77877        2.17236        2.35004
N          0.10086       -0.16323        1.70293
H          0.80730        0.16811        2.36338
S          0.44711       -1.73665        1.19053
O         -0.70048       -2.16442        0.40067
O          0.80421       -2.43768        2.41948
C          1.86034       -1.62177        0.13855
C          1.68503       -1.61769       -1.24356
H          0.69628       -1.73139       -1.67768
C          2.80810       -1.46370       -2.05181
H          2.68904       -1.45235       -3.13207
C          4.08228       -1.30536       -1.49563
C          4.22034       -1.31113       -0.10029
H          5.20470       -1.17890        0.34108
C          3.11614       -1.46595        0.72791
H          3.22853       -1.46094        1.80881
C          5.28380       -1.12134       -2.38019
H          5.65278       -2.09234       -2.73089
H          6.09707       -0.62865       -1.84045
H          5.03212       -0.52568       -3.26251
