22
id_388_ca.log	Energy: -266840.2039261
C         -2.49528       -0.44426       -1.25853
H         -2.15698        0.06403       -2.16777
H         -3.59033       -0.47604       -1.27008
H         -2.12793       -1.47674       -1.28773
C         -1.99645        0.27369       -0.00004
H         -2.40685        1.29096       -0.00015
C         -2.49529       -0.44399        1.25860
H         -2.12792       -1.47645        1.28803
H         -3.59034       -0.47579        1.27014
H         -2.15702        0.06450        2.16773
C         -0.48489        0.40074       -0.00004
C          0.13051        1.65607       -0.00006
H         -0.48303        2.55343       -0.00010
C          1.52382        1.76112       -0.00005
H          1.99209        2.74155       -0.00007
C          2.32312        0.62207       -0.00001
H          3.40712        0.68784        0.00001
C          1.70745       -0.63112        0.00002
C          0.31932       -0.74594        0.00001
H         -0.12907       -1.73827        0.00003
O          2.52446       -1.73815        0.00006
H          1.98073       -2.54404        0.00006
