19
id_378_cb.log	Energy: -567453.3014312
C         -0.60041        1.36087       -0.00321
H         -0.95996        2.38422       -0.01324
C         -1.50561        0.29570        0.02351
C         -1.09173       -1.01812        0.02072
H         -1.79921       -1.83826        0.03648
C          0.27603       -1.26766       -0.01691
C          1.23040       -0.22141       -0.03559
C          0.75668        1.11102       -0.00909
C          1.72193        2.29260        0.02768
O          2.64874        2.24216        0.87380
O          1.47495        3.23382       -0.76733
O          2.54596       -0.40352       -0.10339
H          2.74961       -1.36071       -0.17103
N          0.68285       -2.65995       -0.04024
O         -0.17023       -3.52361        0.04517
O          1.88289       -2.91902       -0.14637
N         -2.93421        0.57684        0.04510
O         -3.28994        1.74604        0.03325
O         -3.71169       -0.36606        0.07375
