23
id_390_ca.log	Energy: -526905.4995396
C         -1.24403        2.24589       -0.58437
H         -1.51802        3.25848       -0.27335
H         -2.09965        1.82961       -1.12921
H         -0.40459        2.33195       -1.28077
C         -0.88884        1.41324        0.64483
H         -1.71111        1.45610        1.36765
H         -0.00984        1.84225        1.13780
C         -0.60087       -0.07994        0.39620
C         -0.28692       -0.75365        1.73337
H          0.58519       -0.27714        2.19371
H         -0.08043       -1.82497        1.63488
H         -1.13664       -0.63719        2.41193
C          0.55128       -0.24778       -0.62719
C          1.90574        0.28230       -0.09366
O          2.10444        1.51384       -0.20853
O          2.67818       -0.57283        0.40925
N          0.75500       -1.68320       -0.98816
H         -0.11974       -2.13073       -1.28980
H          1.15338       -2.20630       -0.19850
H          1.42742       -1.76138       -1.76013
S         -2.15618       -0.81495       -0.31583
H         -2.05338       -2.01153        0.29314
H          0.30219        0.26414       -1.55774
