8
id_3_cb.log	Energy: -221461.7915681
C          0.97789       -0.00002        0.58526
H          1.19820       -0.88421        1.21866
H          1.19821        0.88415        1.21869
C         -0.52962        0.00000        0.44609
H         -1.07479       -0.00000        1.39238
F         -0.95727       -1.09411       -0.27917
F         -0.95724        1.09412       -0.27915
O          1.65242        0.00000       -0.62411
