19
id_344_cb.log	Energy: -275645.8003113
C         -0.12989        1.20870       -0.50932
H         -0.14123        1.20915       -1.60361
H          0.63956        1.90799       -0.16738
C          0.19581       -0.20401       -0.01733
C          1.58089       -0.59680       -0.53352
H          1.62208       -0.52853       -1.62523
H          1.77989       -1.64125       -0.24831
O          2.58020        0.26258       -0.00851
H          2.31187        0.40619        0.91855
C         -0.84346       -1.20533       -0.53411
H         -0.52497       -2.22240       -0.27772
H         -0.90748       -1.13815       -1.63060
O         -2.11855       -1.01612        0.06286
H         -2.30319       -0.06072       -0.00602
N          0.28218       -0.18818        1.44943
H          0.39313       -1.15428        1.76423
H         -0.62324        0.10274        1.81879
O         -1.42247        1.65867       -0.09676
H         -1.35522        1.98002        0.81628
