12
id_383_cb.log	Energy: -509782.9794218
C         -0.09675       -1.38745       -0.00001
H         -0.47350       -2.40316       -0.00002
C         -0.92777       -0.30889        0.00000
C         -0.26162        1.00269       -0.00000
O         -0.81971        2.10343       -0.00002
N          1.13149        0.98090        0.00003
H          1.59787        1.88610        0.00001
C          1.95473       -0.11833        0.00000
O          3.19015       -0.02313       -0.00000
N          1.28524       -1.29545       -0.00001
H          1.84520       -2.14263       -0.00001
S         -2.67886       -0.43181        0.00001
