9
id_360_ca.log	Energy: -486687.6745540
C         -0.44064        0.89217       -0.00005
H         -0.40172        1.51805       -0.89328
H         -0.40173        1.51812        0.89314
C          0.78778        0.02451        0.00000
F          0.85790       -0.77825        1.07932
F          1.90358        0.77639       -0.00018
F          0.85775       -0.77857       -1.07909
S         -1.94152       -0.15028       -0.00001
H         -2.78810        0.89219        0.00015
