23
id_331_ca.log	Energy: -264719.3323801
C         -2.11658       -2.08742       -0.11856
H         -1.97602       -2.51368       -1.11650
H         -3.18213       -2.08998        0.11831
H         -1.59729       -2.73749        0.59263
C         -1.55179       -0.69773       -0.06038
C         -2.33901        0.39906        0.29485
H         -3.38767        0.25347        0.53109
C         -1.76153        1.66257        0.34852
H         -2.35427        2.52690        0.63078
C         -0.41180        1.80279        0.04566
H          0.08671        2.76543        0.08374
C          0.29310        0.65876       -0.31187
N         -0.25201       -0.55882       -0.36505
C          1.74590        0.74280       -0.71568
H          2.26398        1.56437       -0.21963
H          1.83702        0.86487       -1.79767
N          2.43451       -0.52971       -0.35748
H          1.80582       -1.29603       -0.63926
C          2.73006       -0.65561        1.09641
H          3.41383        0.14458        1.37527
H          3.18476       -1.62891        1.27248
H          1.79441       -0.56885        1.64741
H          3.30338       -0.61621       -0.89463
