16
id_315_cb.log	Energy: -215125.1101734
C         -1.90466       -1.28931       -0.01056
H         -2.48599       -0.95201       -0.87664
H         -2.47649       -1.01841        0.88582
H         -1.83169       -2.37866       -0.04761
C         -0.53793       -0.66685        0.00036
C          0.62527       -1.41727        0.00958
H          0.55470       -2.50233        0.01500
C          1.87451       -0.78842        0.00793
H          2.79683       -1.35760        0.01387
C          1.89462        0.59472       -0.00161
H          2.84027        1.13138       -0.00319
N          0.79241        1.35916       -0.00483
C         -0.39336        0.74178       -0.00477
N         -1.51517        1.54832       -0.07391
H         -1.33595        2.50659        0.20463
H         -2.35301        1.17077        0.35369
