10
id_352_cb.log	Energy: -168074.4931828
C         -1.90051        0.10042        0.00002
H         -1.94757        0.74351        0.88445
H         -2.78871       -0.53960        0.00002
H         -1.94759        0.74355       -0.88439
C         -0.63353       -0.74342       -0.00001
H         -0.60893       -1.40422       -0.87502
H         -0.60892       -1.40426        0.87497
C          0.67596        0.04732       -0.00001
O          0.63228        1.30937       -0.00000
O          1.74899       -0.62999       -0.00001
