21
id_326_cb.log	Energy: -266543.9905694
C         -3.73352       -0.21400        0.23813
H         -3.98810        0.60358       -0.44640
H         -4.35900       -0.11133        1.13116
H         -4.00173       -1.15654       -0.25369
C         -2.24818       -0.18613        0.58672
H         -2.01620       -0.99201        1.29529
H         -2.00149        0.75721        1.08952
C         -1.35741       -0.34743       -0.65291
H         -1.62518        0.43217       -1.37911
H         -1.58241       -1.31406       -1.12246
C          0.11487       -0.27328       -0.33620
C          0.87489       -1.43763       -0.22248
H          0.38160       -2.39427       -0.39574
C          2.23618       -1.41702        0.10190
H          2.80073       -2.34140        0.18249
C          2.84722       -0.17904        0.31400
H          3.90489       -0.12868        0.56512
C          2.11338        0.99961        0.20487
H          2.59673        1.96137        0.36850
C          0.72865        1.00360       -0.11861
O          0.05422        2.12400       -0.21590
