14
id_324_cb.log	Energy: -263665.6547128
C         -1.05043       -1.73741       -0.00000
H         -1.47480       -2.73845       -0.00000
C          0.33650       -1.56830        0.00000
H          1.01147       -2.42000        0.00000
C          0.84386       -0.26299        0.00000
C          0.00000        0.85215       -0.00000
H          0.42743        1.85264        0.00000
C         -1.41125        0.70790       -0.00000
C         -1.89805       -0.63629       -0.00000
H         -2.97656       -0.78168       -0.00000
O         -2.22357        1.72856       -0.00000
C          2.30655       -0.10212        0.00000
H          2.88829       -1.04098        0.00000
O          2.89370        0.97279        0.00000
