11
id_341_cb.log	Energy: -202639.4313158
C          1.17635       -1.10390        0.00000
H          2.09877       -1.67909        0.00000
C          1.20969        0.28579        0.00000
H          2.15648        0.82206        0.00000
C         -0.00000        1.02618        0.00000
C         -1.18322        0.23100        0.00000
H         -2.14331        0.74661        0.00000
N         -1.21776       -1.10199        0.00000
C         -0.05030       -1.76569        0.00000
H         -0.10303       -2.85056        0.00000
O         -0.04996        2.32931        0.00000
