17
id_396_cb.log	Energy: -264983.8148697
C          3.31532        0.05722        0.13470
H          4.39711        0.09144        0.22440
C          2.65092       -1.17050        0.14012
H          3.21397       -2.09453        0.23397
C          1.26390       -1.21795        0.02646
H          0.74453       -2.17183        0.03172
C          0.52315       -0.03094       -0.09580
C          1.19784        1.20086       -0.10095
H          0.62763        2.12049       -0.19505
C          2.58510        1.24081        0.01430
H          3.09690        2.19875        0.00975
C         -0.90971       -0.07746       -0.21316
C         -2.11936       -0.12186       -0.32121
C         -3.60658       -0.15399       -0.38130
H         -3.88289       -1.19246       -0.64675
H         -3.89508        0.45675       -1.25839
O         -4.21320        0.27927        0.79768
