15
id_356_ca.log	Energy: -333353.2392674
C          1.32319       -1.14573        0.77645
H          0.94443       -2.10864        0.41889
H          1.06235       -1.03150        1.83196
H          2.41248       -1.14023        0.68318
C          0.76589        0.00539       -0.05165
C          1.29904        1.35228        0.41223
H          0.92917        2.15972       -0.22556
H          2.39050        1.32981        0.35513
H          1.00769        1.54988        1.44707
C         -0.76402        0.00543        0.03275
F         -1.29134       -1.14091       -0.44284
F         -1.31521        1.00383       -0.68128
F         -1.20317        0.14111        1.29819
O          1.09958       -0.12999       -1.42532
H          0.99958       -1.05974       -1.69334
