14
id_332_cb.log	Energy: -383405.1081956
C         -3.03864       -0.17704       -0.08902
H         -3.20313       -1.10540        0.46954
H         -3.14996       -0.40369       -1.15553
H         -3.82713        0.52971        0.19013
C         -1.65211        0.39285        0.20045
H         -1.56751        0.62755        1.26994
H         -1.52047        1.33762       -0.33981
C         -0.53961       -0.57724       -0.19890
H         -0.55428       -0.75906       -1.28250
H         -0.67865       -1.54823        0.29485
P          1.12632        0.01728        0.22417
O          2.16331       -1.04168       -0.16292
O          1.32470        1.43257       -0.32713
H          1.08434        0.10380        1.63611
