19
id_340_ca.log	Energy: -344107.2014922
C         -2.97014        1.36701       -0.00000
H         -3.54594        1.06697       -0.88207
H         -2.84324        2.45031        0.00001
H         -3.54595        1.06695        0.88206
C         -1.63546        0.69894       -0.00000
C         -1.57224       -0.75371       -0.00001
N         -0.46856       -1.43126       -0.00000
C          0.68389       -0.68895       -0.00000
C          1.94122       -1.33237       -0.00000
H          1.97143       -2.41970       -0.00000
N          3.08971       -0.68308       -0.00000
C          3.04851        0.67556        0.00000
H          4.01070        1.17748        0.00000
C          1.88270        1.40583        0.00000
H          1.89735        2.49125        0.00000
C          0.65430        0.71681        0.00000
N         -0.53877        1.40172        0.00000
O         -2.76221       -1.37934        0.00001
H         -2.62002       -2.34498        0.00001
