26
id_313_cb.log	Energy: -279012.9681828
C         -3.74012       -0.24092        0.15526
H         -4.19343        0.23414       -0.72128
H         -4.08453        0.31211        1.03571
H         -4.12519       -1.26165        0.22527
C         -2.23630       -0.23453        0.06246
C         -1.49428       -1.41166        0.09648
H         -2.00372       -2.36733        0.19290
C         -0.10264       -1.38384        0.01323
H          0.43967       -2.32213        0.05021
C          0.59374       -0.17737       -0.11376
C         -0.14546        1.02733       -0.17112
C         -1.53451        0.96737       -0.07664
H         -2.09478        1.89979       -0.13369
C          0.51514        2.36844       -0.36552
H         -0.14916        3.03805       -0.91870
H          1.45514        2.27439       -0.91471
H          0.74051        2.85444        0.59079
N          2.01551       -0.13347       -0.22194
C          2.64991        0.44220        0.96602
H          3.71619        0.58700        0.77023
H          2.54423       -0.22035        1.84018
H          2.21392        1.40965        1.21542
C          2.65072       -1.40655       -0.53409
H          2.59643       -2.13139        0.29387
H          3.70738       -1.22302       -0.74687
H          2.19154       -1.85221       -1.41968
