16
id_397_ca.log	Energy: -513821.7206434
C          0.36154        2.15001       -0.00000
H          0.42257        3.23383       -0.00001
C         -0.88205        1.52378       -0.00000
H         -1.79316        2.11145       -0.00000
C         -0.93813        0.12753        0.00000
C          0.23154       -0.63495        0.00000
H          0.15963       -1.71918        0.00001
C          1.47329        0.00076        0.00000
C          1.53498        1.39925       -0.00000
H          2.49682        1.90496       -0.00001
S          2.93113       -1.01492        0.00000
H          3.81425       -0.00195        0.00000
C         -2.23686       -0.59750        0.00001
O         -2.34247       -1.81142       -0.00001
O         -3.30135        0.21452        0.00001
H         -4.11349       -0.32834       -0.00000
