22
id_389_cb.log	Energy: -526599.8813753
C         -0.74855        2.39290       -0.22924
H         -0.02945        2.27833       -1.04631
H         -0.57572        3.37436        0.22702
H         -1.75205        2.38452       -0.66237
C         -0.61608        1.29254        0.82112
H         -1.39847        1.43538        1.57694
H          0.34066        1.41180        1.35563
C         -0.73721       -0.16797        0.32498
C         -0.63899       -1.07152        1.56258
H         -0.74687       -2.12865        1.30072
H         -1.45086       -0.82242        2.25323
H          0.31178       -0.93721        2.09664
C          0.44218       -0.48671       -0.65587
C          1.77169       -0.00244       -0.08424
O          2.43670       -0.60895        0.73915
O          2.18612        1.16809       -0.59312
H          3.03671        1.41321       -0.17761
N          0.54828       -1.90551       -0.99035
H          0.82899       -2.42292       -0.15791
H          1.30844       -2.02383       -1.65932
S         -2.36249       -0.43165       -0.51242
H          0.26798        0.06836       -1.57980
