21
id_362_cb.log	Energy: -1225340.4008066
C          4.07358        0.20714       -0.87548
H          4.04026        0.85346       -1.75679
H          4.78548       -0.60113       -1.05956
H          4.41601        0.79262       -0.01620
C          2.69778       -0.37641       -0.59972
C          2.75465       -1.28587        0.64596
O          2.37409       -0.81295        1.74602
O          3.22908       -2.43667        0.44704
O          1.82282        0.74045       -0.41094
C          0.49899        0.51380       -0.27276
C         -0.10357       -0.74039       -0.37885
H          0.48311       -1.63018       -0.57771
C         -1.48188       -0.87190       -0.22734
C         -2.27965        0.23961        0.03098
C         -1.68758        1.49617        0.13499
H         -2.29853        2.37055        0.33511
C         -0.31763        1.62763       -0.01596
Cl         0.40469        3.20256        0.11431
Cl        -3.99955        0.10151        0.22786
Cl        -2.17679       -2.45761       -0.36401
H          2.35589       -0.96039       -1.46145
