62
id_39_ca.log	Energy: -885581.7177052
C         -7.31469        0.40843       -1.91816
H         -7.86374       -0.32862       -1.32548
H         -8.03982        1.04216       -2.43770
H         -6.73618       -0.12073       -2.68280
C         -6.42209        1.27226       -1.03301
H         -7.07013        1.81918       -0.33807
C         -5.66239        2.29709       -1.88052
H         -4.99077        2.91606       -1.27738
H         -5.07222        1.80607       -2.66180
H         -6.37609        2.96365       -2.37432
N         -5.56756        0.43140       -0.16781
C         -4.50175       -0.25386       -0.89181
H         -3.75315        0.44813       -1.29792
H         -4.91607       -0.81990       -1.72941
C         -3.79405       -1.24230        0.01606
H         -2.97346       -1.73722       -0.50485
H         -4.48117       -1.98850        0.42238
N         -3.21421       -0.52001        1.19718
C         -4.27976        0.26893        1.90172
H         -4.97508       -0.46215        2.32049
H         -3.79385        0.82433        2.70508
C         -4.96686        1.19707        0.91840
H         -5.74751        1.73857        1.45992
H         -4.23097        1.93757        0.55973
C         -2.51621       -1.44488        2.15650
H         -2.18545       -0.83064        2.99765
H         -3.25695       -2.16961        2.49904
C         -1.38018       -2.14391        1.51951
C         -1.13807       -3.42119        1.14641
H         -1.78217       -4.28177        1.25268
N          0.12111       -3.50134        0.57728
C          0.58080       -2.28484        0.61977
O         -0.27792       -1.40293        1.18349
C          1.86250       -1.78139        0.14132
C          2.21381       -0.45585        0.32193
H          1.53375        0.20473        0.84874
C          3.45413        0.06716       -0.13411
C          4.36184       -0.75853       -0.77838
H          5.30765       -0.37670       -1.14910
C          4.00395       -2.10358       -0.95604
C          2.77583       -2.63949       -0.51749
C          2.82891       -4.00754       -0.90997
H          2.09175       -4.78240       -0.76731
N          3.96629       -4.27789       -1.52207
N          4.66855       -3.13017       -1.54856
H          5.58547       -3.10935       -1.97682
C          3.78190        1.49462        0.10497
C          5.06092        1.86705        0.50587
H          5.80965        1.09515        0.65965
C          5.40447        3.21074        0.74796
H          6.41375        3.44861        1.06859
C          4.47748        4.22681        0.59550
H          4.73121        5.26557        0.78180
C          3.19092        3.86139        0.18494
C          2.81558        2.51583       -0.06687
C          1.44440        2.54716       -0.49824
H          0.82708        1.71093       -0.79326
C          1.05442        3.85904       -0.48212
H          0.10286        4.30352       -0.73679
N          2.09689        4.64994       -0.06989
H          2.06860        5.65679        0.02074
H         -2.51609        0.14941        0.84080
