12
id_381_cb.log	Energy: -690998.3635780
C         -1.40330       -0.52519       -0.09397
H         -1.20348       -1.24184        0.70914
H         -1.26609       -1.04583       -1.04658
C         -0.40015        0.61686       -0.00668
H         -0.47141        1.16420        0.93880
H         -0.51022        1.32452       -0.83531
S          1.30452        0.07562       -0.10638
O          2.20133        1.22291        0.03340
O          1.50350       -0.82756       -1.23431
O          1.49254       -0.87007        1.18454
H          1.55998       -0.34205        2.00818
S         -3.10871        0.13618        0.04142
