25
id_370_ca.log	Energy: -961900.0550360
C         -2.06903       -1.52385       -0.02712
H         -2.58889       -2.44911        0.19899
C         -0.75640       -1.56255       -0.49386
H         -0.27778       -2.52673       -0.61897
C         -0.07042       -0.38245       -0.79085
C         -0.73419        0.83893       -0.59550
C         -2.04115        0.89373       -0.13348
H         -2.53137        1.85153        0.00734
C         -2.69874       -0.29956        0.14745
Cl        -4.34494       -0.24405        0.73419
Cl         0.10694        2.32523       -0.93253
O          1.19843       -0.31682       -1.26476
C          1.98331       -1.51781       -1.32991
H          1.40940       -2.31829       -1.80543
H          2.81138       -1.25283       -1.99124
C          2.51382       -1.92100        0.03656
H          1.69782       -2.20984        0.70769
H          3.14500       -2.80408       -0.10427
C          3.34682       -0.80894        0.67130
H          4.09348       -0.42475       -0.02925
H          3.88596       -1.19659        1.54465
C          2.51323        0.33345        1.18688
O          1.44453        0.21692        1.75932
O          3.09901        1.52845        1.00806
H          2.54184        2.22244        1.41257
