11
id_352_ca.log	Energy: -168359.6640503
C         -1.95938        0.09667        0.00001
H         -2.00952        0.73578        0.88627
H         -2.83549       -0.55697       -0.00001
H         -2.00952        0.73581       -0.88623
C         -0.68966       -0.73994       -0.00001
H         -0.63946       -1.39622       -0.87646
H         -0.63945       -1.39624        0.87643
C          0.55942        0.09356       -0.00000
O          0.60085        1.31034       -0.00000
O          1.67620       -0.65520        0.00001
H          2.45477       -0.06506        0.00001
