15
id_355_ca.log	Energy: -520129.5815197
C         -0.00201        1.76631        0.86026
H          0.88492        2.38093        0.69456
H         -0.00205        1.40069        1.88919
H         -0.89092        2.37800        0.69385
C          0.00067        0.61664       -0.13446
C         -1.26910       -0.24033        0.04728
F         -2.36045        0.51281       -0.13516
F         -1.34854       -0.78011        1.27058
F         -1.32982       -1.24499       -0.84230
C          1.26856       -0.24076        0.05051
F          1.33334       -1.23457       -0.85140
F          2.36202        0.51282       -0.11569
F          1.33809       -0.79497        1.26746
O          0.00319        1.15467       -1.43164
H          0.04202        0.45297       -2.10737
