19
id_327_cb.log	Energy: -265794.6416066
C          1.81878       -1.49510       -0.05482
H          2.59972       -2.25179       -0.10317
C          0.47646       -1.89005        0.00510
H          0.19951       -2.94123        0.00908
C         -0.49018       -0.88205        0.05142
C         -0.13889        0.46756        0.04201
C          1.21466        0.89600        0.00534
C          2.18195       -0.14817       -0.05588
H          3.23315        0.13151       -0.10154
O          1.54861        2.16486        0.02419
C         -1.36742        1.34498        0.10830
H         -1.50951        1.74293        1.12427
H         -1.31417        2.20886       -0.56379
C         -2.50383        0.37077       -0.27087
H         -3.46203        0.63112        0.18765
H         -2.63808        0.38684       -1.35883
C         -1.99536       -1.02293        0.15150
H         -2.39474       -1.83117       -0.46995
H         -2.27981       -1.24210        1.19023
