25
id_312_cb.log	Energy: -575169.1753664
C          3.83339       -1.54476        0.00754
H          4.60858       -2.30422        0.00560
C          2.49166       -1.90972        0.07929
H          2.21488       -2.95831        0.13468
C          1.48870       -0.94088        0.08260
H          0.44714       -1.24058        0.14093
C          1.83227        0.40998        0.01115
C          3.17974        0.78121       -0.06227
H          3.45153        1.83207       -0.12098
C          4.17193       -0.19357       -0.06260
H          5.21385        0.10639       -0.12031
S          0.63552        1.73725        0.01652
C         -0.91878        0.87632        0.00279
C         -1.51137        0.50040       -1.20732
H         -1.01274        0.72888       -2.14487
C         -2.72682       -0.16780       -1.22182
H         -3.18054       -0.45727       -2.16573
C         -3.38584       -0.47707       -0.02014
C         -2.78796       -0.09792        1.19298
H         -3.28859       -0.33380        2.12806
C         -1.57101        0.56878        1.20104
H         -1.11859        0.84941        2.14776
N         -4.62876       -1.08821       -0.03433
H         -4.86078       -1.59071        0.81524
H         -4.81722       -1.64023       -0.86373
