16
id_334_cb.log	Energy: -358087.4065284
C          0.00002       -2.58692        0.00000
H          0.00003       -3.67338        0.00000
C          1.21335       -1.90493        0.00000
H          2.16255       -2.43101        0.00000
C          1.21045       -0.50941        0.00000
C          0.00000        0.22039        0.00000
C         -1.21044       -0.50943        0.00000
C         -1.21333       -1.90495        0.00000
H         -2.16252       -2.43103        0.00000
O         -2.41173        0.12670        0.00000
H         -2.20254        1.10449        0.00000
C         -0.00001        1.71969        0.00000
O         -1.11654        2.32200        0.00000
O          1.11651        2.32202        0.00000
O          2.41173        0.12674        0.00000
H          2.20254        1.10454        0.00000
