9
id_361_ca.log	Energy: -284031.9009426
C          0.90021        0.77185       -0.08600
H          0.90396        1.51994        0.70957
H          0.94389        1.26943       -1.05919
C         -0.41040        0.02033       -0.00283
F         -0.57843       -0.58241        1.18856
F         -0.50260       -0.94616       -0.93751
F         -1.45708        0.84662       -0.18203
O          1.98392       -0.10515        0.12150
H          2.18493       -0.56369       -0.71065
