15
id_380_cb.log	Energy: -396109.8677630
C          0.98404        1.40956       -0.76759
H          1.98178        1.54059       -0.33607
H          0.46547        2.37918       -0.73462
H          1.10646        1.12189       -1.81806
C          0.20878        0.33935        0.01078
C          0.00270        0.83830        1.44557
H         -0.58517        1.76855        1.45598
H          0.97029        1.04215        1.91699
H         -0.51968        0.09636        2.05649
C         -1.15177        0.21696       -0.67806
H         -1.01298       -0.17806       -1.69291
H         -1.60502        1.21808       -0.75393
O         -2.03932       -0.62928        0.05642
H         -2.89921       -0.61739       -0.39085
S          1.13438       -1.26013       -0.01367
