22
id_379_ca.log	Energy: -266839.6765722
C          2.21651        0.61218        1.09807
H          2.10190       -0.14885        1.87942
H          1.69256        1.51666        1.42276
H          3.28260        0.84815        1.00571
C          1.66576        0.08349       -0.23454
H          1.81395        0.86279       -0.99216
C          2.45207       -1.15148       -0.67245
H          2.44235       -1.92896        0.09983
H          3.49719       -0.87698       -0.84921
H          2.05130       -1.58184       -1.59662
C          0.17206       -0.15912       -0.12107
C         -0.38026       -1.42736        0.07677
H          0.27840       -2.29024        0.11963
C         -1.75715       -1.61957        0.21518
H         -2.15267       -2.61949        0.36631
C         -2.61408       -0.52323        0.15368
H         -3.68740       -0.65479        0.25647
C         -2.09318        0.75497       -0.04400
H         -2.74731        1.62231       -0.09703
C         -0.71608        0.92907       -0.17603
O         -0.17096        2.17713       -0.37051
H         -0.87905        2.84050       -0.42470
