60
id_38_cb.log	Energy: -1679109.9350235
C         -0.08970       -2.04587        1.10791
H         -1.11172       -1.97468        1.47014
C          0.17243       -1.93041       -0.25894
H         -0.64185       -1.76543       -0.95958
C          1.48050       -2.02423       -0.72965
H          1.69367       -1.93820       -1.79150
C          2.51593       -2.23981        0.18189
C          2.26966       -2.35102        1.54821
H          3.08914       -2.52215        2.23878
C          0.95541       -2.25213        2.00840
H          0.75120       -2.34245        3.07098
S          4.19243       -2.34633       -0.44648
O          4.99120       -3.07017        0.56865
O          4.10294       -3.03554       -1.75320
N          4.66812       -0.85037       -0.76004
C          4.75029        0.01435        0.29205
O          4.73164       -0.29386        1.50228
N          4.89590        1.34899       -0.08245
C          4.30281        1.76401       -1.35980
H          4.61917        1.08998       -2.15240
H          4.68416        2.76392       -1.59051
C          2.77561        1.78064       -1.24934
H          2.33383        2.09094       -2.20189
H          2.44891        0.75578       -1.03507
C          2.36596        2.72563       -0.12178
H          2.60121        3.75523       -0.41349
C          3.07751        2.41482        1.19570
H          2.85310        3.19681        1.93016
H          2.73619        1.45634        1.60280
C          4.58843        2.32887        0.96440
H          4.97867        3.29580        0.63227
H          5.09938        2.05692        1.88660
N          0.86338        2.72975        0.10728
H          0.71986        3.20659        1.00927
C          0.25558        1.35962        0.23815
H          0.84781        0.78578        0.95285
H          0.32477        0.89048       -0.74604
C         -1.19396        1.47497        0.67758
H         -1.58767        0.46252        0.80549
H         -1.26134        1.98690        1.64583
C         -1.97987        2.26668       -0.36258
H         -1.97922        1.74143       -1.32662
C         -1.35449        3.64201       -0.54258
H         -1.87142        4.19597       -1.33130
H         -1.45337        4.20706        0.39263
C          0.11475        3.52756       -0.92374
H          0.58542        4.51028       -0.97575
H          0.24402        3.01268       -1.87876
O         -3.32848        2.48589        0.05969
C         -4.20314        1.43899        0.07301
C         -5.44355        1.69205        0.66986
H         -5.63922        2.67317        1.09049
C         -6.40551        0.69695        0.72163
H         -7.36675        0.89187        1.18642
C         -6.14700       -0.56482        0.18406
C         -4.91327       -0.80860       -0.41229
C         -3.93570        0.18469       -0.47587
H         -2.99002       -0.04899       -0.95098
Cl        -4.54133       -2.36491       -1.09540
Cl        -7.37098       -1.79697        0.28083
