12
id_329_cb.log	Energy: -262453.5643245
C          1.40810       -0.43868       -0.45295
H          2.29558        0.07446       -0.84212
H          1.29181       -1.39452       -0.97570
C          0.18462        0.42394       -0.70135
C         -1.05615       -0.21550       -0.04768
O         -1.62118        0.45494        0.85882
O         -1.39997       -1.35109       -0.46375
O          0.38903        1.73492       -0.19795
H         -0.29021        1.84978        0.49597
O          1.52664       -0.64341        0.95250
H          2.31308       -1.18513        1.12053
H          0.01415        0.47388       -1.78372
