21
id_314_ca.log	Energy: -736272.5349383
C         -2.48636       -1.00170       -0.69796
H         -3.04399       -1.68461       -1.33067
C         -1.13108       -1.19939       -0.45805
H         -0.60944       -2.04206       -0.89865
C         -0.46871       -0.29814        0.37024
C         -1.09861        0.79461        0.96401
H         -0.55266        1.47387        1.60995
C         -2.45095        0.98859        0.71846
H         -2.98371        1.82260        1.16332
C         -3.10946        0.08706       -0.10741
N         -4.53362        0.31140       -0.37429
H         -5.05317        0.50726        0.49293
H         -4.67194        1.11783       -1.00089
S          1.25949       -0.52846        0.65609
O          1.64382        0.08317        1.92346
O          1.64211       -1.89933        0.33648
C          2.02312        0.52454       -0.65767
F          1.64562        1.78066       -0.48416
F          3.33740        0.42896       -0.55510
F          1.62949        0.09510       -1.84519
H         -4.96940       -0.50602       -0.82242
