16
id_338_ca.log	Energy: -311170.2737098
C          0.00533       -1.19294        0.00000
H         -0.55500       -2.12188        0.00001
C          1.39149       -1.23148        0.00001
H          1.92674       -2.17579        0.00001
C          2.11427       -0.03437        0.00000
C          1.45396        1.19879       -0.00001
H          2.03213        2.11872       -0.00001
C          0.06675        1.22728       -0.00000
H         -0.45335        2.18024       -0.00001
C         -0.66844        0.03632       -0.00000
C         -2.14342        0.11305        0.00000
O         -2.78326        1.15339        0.00001
O         -2.74439       -1.08776       -0.00001
H         -3.71148       -0.95448       -0.00001
O          3.47346       -0.12864       -0.00000
H          3.87486        0.75739        0.00000
