11
id_372_cb.log	Energy: -334625.4468444
C          1.14011        0.60416       -0.32662
H          1.92593        1.29765       -0.02137
H          1.08979        0.56093       -1.41574
C         -0.21610        0.94825        0.27318
H         -0.51792        1.91116       -0.15011
H         -0.09604        1.09428        1.35373
S         -1.46849       -0.34952       -0.07113
N          1.53558       -0.76011        0.13433
H          1.78475       -0.75724        1.12919
H          2.32089       -1.14758       -0.39571
H          0.69521       -1.36055        0.01835
