26
id_300_ca.log	Energy: -476552.0482624
C          3.93439       -0.46827        0.13298
H          3.57291       -0.59685        1.15681
H          4.95154       -0.86531        0.07254
H          3.96241        0.59870       -0.10250
C          3.05447       -1.20813       -0.85155
H          3.38495       -1.06303       -1.87964
H          3.00150       -2.27675       -0.63615
O          1.70790       -0.66960       -0.83588
C          0.92312       -1.06401        0.15791
O          1.19413       -1.91267        0.97763
C         -0.42012       -0.39389        0.10004
C         -1.54511       -1.20970        0.07128
H         -1.43501       -2.28859        0.12625
C         -2.79577       -0.62181       -0.04604
C         -2.97500        0.74914       -0.13539
H         -3.96972        1.17359       -0.22128
C         -1.85461        1.57061       -0.09231
H         -1.95055        2.64913       -0.12745
C         -0.60479        0.98599        0.03271
N          0.54708        1.88107        0.18147
O          0.49171        2.97203       -0.35462
O          1.48150        1.48924        0.85975
N         -3.97416       -1.49034       -0.09974
H         -3.81042       -2.38175        0.38811
H         -4.79384       -1.04176        0.33289
H         -4.22532       -1.71408       -1.07437
