22
id_390_cb.log	Energy: -526616.5352645
C         -1.26184        2.24546       -0.63239
H         -1.58847        3.25126       -0.34703
H         -2.06292        1.77808       -1.21365
H         -0.38679        2.35939       -1.28119
C         -0.94701        1.42296        0.61332
H         -1.79934        1.47021        1.30188
H         -0.09605        1.87721        1.13892
C         -0.65184       -0.07615        0.39770
C         -0.24622       -0.66577        1.75607
H          0.61601       -0.13542        2.18305
H          0.00299       -1.73096        1.68878
H         -1.08336       -0.56938        2.45413
C          0.51378       -0.24430       -0.62377
C          1.87782        0.25982       -0.11545
O          2.09510        1.49357       -0.21686
O          2.66057       -0.59971        0.37295
N          0.65266       -1.68953       -0.96409
H         -0.31383       -2.07986       -0.99853
H          1.20734       -2.16589       -0.24296
H          1.12231       -1.82816       -1.86322
S         -2.13732       -0.96697       -0.25886
H          0.25713        0.26867       -1.55139
