61
id_36_ca.log	Energy: -1461745.4426144
C          7.21934        0.01284        0.64821
H          8.28687       -0.14275        0.76926
C          6.32474       -0.95749        1.08476
H          6.69299       -1.86540        1.55374
C          4.95021       -0.77219        0.91700
C          4.47416        0.40466        0.33342
H          3.40507        0.56320        0.21536
C          5.36627        1.38585       -0.08608
H          4.99174        2.30296       -0.52914
C          6.74343        1.19162        0.06344
C          7.68203        2.22606       -0.38643
N          7.30716        3.39789       -0.95323
N          8.40892        4.04629       -1.21330
N          9.38311        3.27455       -0.81027
N          9.00311        2.13210       -0.28819
C          4.01593       -1.80158        1.48464
O          4.14793       -2.12603        2.67902
N          3.06020       -2.32573        0.69276
C          2.95138       -2.14700       -0.75636
H          3.76274       -1.52171       -1.12268
H          3.05684       -3.13668       -1.21932
C          1.59236       -1.55339       -1.12413
H          1.51446       -1.48834       -2.21481
H          1.51342       -0.54340       -0.70659
C          0.49991       -2.46316       -0.56964
H          0.59429       -3.44477       -1.04753
C          0.63785       -2.62832        0.93950
H          0.53517       -1.66139        1.44376
H         -0.11888       -3.31098        1.33824
C          2.02466       -3.19665        1.25009
H          2.13354       -4.19553        0.80955
H          2.17047       -3.27467        2.32552
N         -0.87111       -1.97556       -0.99092
H         -0.77475       -1.69441       -1.97808
C         -1.36994       -0.76924       -0.24443
H         -1.54197       -1.08443        0.78741
H         -0.58784       -0.00980       -0.26593
C         -2.65250       -0.25912       -0.88356
H         -2.46429        0.04018       -1.92229
H         -2.97251        0.62942       -0.33201
C         -3.72024       -1.34905       -0.87077
H         -3.99288       -1.61258        0.15924
C         -3.20208       -2.58925       -1.58248
H         -3.93494       -3.39868       -1.52077
H         -3.03881       -2.35551       -2.64201
C         -1.90301       -3.07003       -0.95542
H         -1.49241       -3.91920       -1.50318
H         -2.03661       -3.34438        0.09406
O         -4.88835       -0.93591       -1.58522
C         -5.76232       -0.06227       -1.00884
C         -6.82292        0.35677       -1.82102
H         -6.88744       -0.01044       -2.84016
C         -7.77806        1.22642       -1.32224
H         -8.60147        1.54995       -1.95096
C         -7.69109        1.69476       -0.01018
C         -6.63302        1.27593        0.79100
C         -5.66312        0.39937        0.30322
H         -4.85545        0.09988        0.96030
Cl        -6.47853        1.83509        2.43111
Cl        -8.90611        2.78830        0.58452
H         10.36127        3.54731       -0.89746
