14
id_356_cb.log	Energy: -333050.9599743
C         -1.34146        1.25578        0.53840
H         -0.94937        2.16209        0.06490
H         -1.10545        1.28357        1.60801
H         -2.43064        1.25572        0.42688
C         -0.79408       -0.00000       -0.16363
C         -1.34145       -1.25579        0.53840
H         -0.94939       -2.16209        0.06487
H         -2.43064       -1.25571        0.42692
H         -1.10541       -1.28359        1.60800
C          0.72942        0.00000        0.02684
F          1.32204        1.07915       -0.53319
F          1.32203       -1.07917       -0.53316
F          1.12041        0.00002        1.32693
O         -1.05300        0.00000       -1.52311
