13
id_369_ca.log	Energy: -1058012.8506111
C         -1.03987       -1.74479        0.00000
H         -1.69707       -2.60807        0.00000
C          0.33864       -1.91430       -0.00000
H          0.77025       -2.90891       -0.00000
C          1.16557       -0.79498        0.00000
C          0.62647        0.49130        0.00000
C         -0.76440        0.67017        0.00000
C         -1.58012       -0.46573        0.00000
Cl        -3.30993       -0.25142       -0.00000
O         -1.23496        1.93724        0.00000
H         -2.20900        1.94656        0.00000
Cl         1.63141        1.89890       -0.00000
Cl         2.88662       -1.02263       -0.00000
