27
id_313_ca.log	Energy: -279301.1534689
C         -3.74187       -0.35545       -0.00947
H         -4.10186       -0.46523       -1.03855
H         -4.19855        0.54558        0.40754
H         -4.09397       -1.22205        0.55629
C         -2.23970       -0.26626        0.01609
C         -1.45620       -1.42347        0.03736
H         -1.93311       -2.39879        0.06337
C         -0.06971       -1.33965        0.02660
H          0.53170       -2.24353        0.04816
C          0.53266       -0.08832       -0.00517
C         -0.20539        1.09652       -0.01480
C         -1.59709        0.97259       -0.00327
H         -2.19508        1.88067       -0.00884
C          0.44627        2.45560       -0.03029
H         -0.31698        3.23576       -0.02102
H          1.06017        2.59971       -0.92676
H          1.08822        2.60508        0.84548
N          2.00825       -0.01688       -0.02196
C          2.61915       -0.53067        1.24514
H          3.69274       -0.34930        1.19723
H          2.41559       -1.59876        1.31764
H          2.17206        0.00685        2.08057
C          2.60112       -0.68092       -1.22628
H          2.41466       -1.75203       -1.16069
H          3.67238       -0.48130       -1.22382
H          2.13065       -0.25872       -2.11332
H          2.26813        0.97442       -0.08498
