67
id_34_ca.log	Energy: -1092132.5893908
C          0.77424        3.00052        2.57000
H          0.48958        2.07846        3.09264
H          0.00484        3.21363        1.81889
H          0.76390        3.81726        3.29775
C          2.15363        2.86066        1.93250
H          2.91435        2.75491        2.71322
H          2.40449        3.75956        1.35575
C          2.26207        1.63742        1.01856
H          2.12636        0.73498        1.62555
C          3.59402        1.52407        0.27932
H          3.53164        0.66865       -0.40303
H          3.74377        2.41948       -0.33453
C          4.76991        1.33910        1.23624
H          4.56402        0.54536        1.96414
H          4.99064        2.25720        1.78967
H          5.67159        1.05883        0.68180
N          1.14940        1.63778        0.05562
C          0.01745        0.89925        0.08372
C         -0.81654        1.37420       -0.92358
C         -0.08486        2.43813       -1.50668
N          1.08196        2.59494       -0.88641
C         -0.47011        3.33709       -2.63510
H         -0.52867        2.78282       -3.57648
H          0.27430        4.13009       -2.74065
H         -1.44922        3.79125       -2.45790
C         -2.18485        0.94579       -1.29000
O         -2.66042        1.23028       -2.40578
N         -2.88593        0.29170       -0.35047
H         -2.39613        0.03526        0.50101
C         -4.19511       -0.31413       -0.60740
C         -4.03680       -1.56934       -1.46874
H         -5.00845       -1.92028       -1.82745
H         -3.55618       -2.37987       -0.91241
H         -3.41858       -1.34428       -2.34315
C         -4.94259       -0.53754        0.73074
C         -4.18199       -1.47923        1.67450
H         -4.77119       -1.63095        2.58628
H         -3.21174       -1.07313        1.98730
H         -4.01069       -2.46210        1.22313
C         -5.14900        0.81332        1.42647
H         -5.74074        0.67885        2.33902
H         -5.68559        1.51150        0.77236
H         -4.19695        1.27428        1.71059
C         -6.31701       -1.14644        0.42762
H         -6.91969       -1.17346        1.34229
H         -6.23485       -2.17178        0.05255
H         -6.85752       -0.55000       -0.31789
N         -0.20078       -0.16834        0.97501
H          0.15286       -0.03004        1.92576
S          0.13132       -1.73331        0.42792
O         -0.68236       -1.92701       -0.76685
O         -0.08702       -2.56896        1.60644
C          1.83502       -1.79793       -0.04412
C          2.17109       -1.66745       -1.39166
H          1.39978       -1.53863       -2.14479
C          3.51504       -1.71800       -1.74773
H          3.79300       -1.62202       -2.79402
C          4.51417       -1.88439       -0.77990
C          4.14041       -2.01481        0.56411
H          4.90678       -2.15027        1.32255
C          2.80339       -1.97191        0.94459
H          2.52156       -2.07624        1.98898
C          5.96431       -1.87786       -1.17569
H          6.11723       -2.40468       -2.12185
H          6.58737       -2.34037       -0.40607
H          6.30931       -0.84599       -1.31366
H         -4.77159        0.42461       -1.17741
