17
id_347_ca.log	Energy: -467369.1318566
C         -2.95269        0.61453        0.93152
H         -2.58852        0.20334        1.87541
H         -4.04406        0.55939        0.91099
H         -2.64866        1.65881        0.83421
S         -2.34269       -0.37206       -0.47112
C         -0.58255       -0.18251       -0.24524
C          0.20991       -1.29474        0.04815
H         -0.25004       -2.27173        0.16687
C          1.59071       -1.16609        0.19423
H          2.20540       -2.03372        0.42018
C          2.18211        0.08902        0.06232
C          1.40203        1.21144       -0.22611
H          1.87998        2.18085       -0.33240
C          0.02870        1.06974       -0.38833
H         -0.57239        1.94276       -0.62955
O          3.53293        0.27931        0.20506
H          3.96867       -0.56956        0.39239
