14
id_375_ca.log	Energy: -250736.8940245
C          1.74782       -1.32155       -0.00000
H          2.41187       -2.17915       -0.00000
C          2.26780       -0.02286        0.00000
H          3.34303        0.12904       -0.00000
C          1.42990        1.08738        0.00000
H          1.83419        2.09571       -0.00000
C          0.04677        0.90740        0.00000
C         -0.48085       -0.39356        0.00000
C          0.37250       -1.50654       -0.00000
H         -0.05997       -2.50214       -0.00000
C         -1.90220       -0.56620        0.00000
N         -3.05430       -0.70861        0.00000
O         -0.83505        1.94036       -0.00000
H         -0.35901        2.78938        0.00001
