11
id_336_ca.log	Energy: -213007.8298352
C          0.16488        1.22168       -0.00000
H          0.66017        2.18527        0.00000
C         -1.20771        1.08896        0.00000
H         -1.84518        1.96802        0.00000
N         -1.83064       -0.10637        0.00000
C         -1.03065       -1.16621       -0.00000
H         -1.50678       -2.14181        0.00001
N          0.30704       -1.16746       -0.00000
C          0.89026        0.02617       -0.00000
O          2.23247        0.08743        0.00000
H          2.59653       -0.81763        0.00001
