23
id_304_ca.log	Energy: -358267.8914539
C          4.74244       -0.00001       -0.42359
H          5.03742        0.89115        0.13727
H          5.27579       -0.00003       -1.37683
H          5.03742       -0.89114        0.13731
C          3.25593       -0.00001       -0.69951
H          2.92744       -0.89096       -1.23676
H          2.92744        0.89092       -1.23678
N          2.49407        0.00001        0.60730
H          2.77881        0.82495        1.15409
C          1.04222        0.00001        0.42798
C          0.38631       -1.21954        0.32643
H          0.93825       -2.15037        0.41087
C         -0.98748       -1.22236        0.12484
H         -1.53886       -2.15074        0.04686
C         -1.63978        0.00000        0.02958
C         -0.98749        1.22236        0.12484
H         -1.53887        2.15075        0.04686
C          0.38631        1.21955        0.32643
H          0.93824        2.15039        0.41087
N         -3.09213       -0.00000       -0.17582
O         -3.66038       -1.07578       -0.25562
O         -3.66039        1.07577       -0.25566
H          2.77880       -0.82491        1.15412
