24
id_353_ca.log	Energy: -254645.3259421
C         -2.18086        1.22786       -0.71199
H         -1.28254        1.21936       -1.32891
H         -2.19196        2.10049       -0.05908
H         -3.06995        1.21114       -1.34180
N         -2.19070       -0.00000        0.13108
C         -2.18086       -1.22786       -0.71199
H         -2.19196       -2.10049       -0.05908
H         -1.28254       -1.21936       -1.32891
H         -3.06995       -1.21114       -1.34180
C         -1.10391       -0.00000        1.18613
H         -1.28370        0.89056        1.79170
H         -1.28370       -0.89056        1.79170
C          0.28185       -0.00000        0.60339
C          0.93537        1.20670        0.33661
H          0.43604        2.14634        0.55992
C          2.21822        1.20716       -0.20512
H          2.71858        2.14869       -0.40817
C          2.85937        0.00000       -0.47847
H          3.86077        0.00000       -0.89760
C          2.21822       -1.20716       -0.20512
H          2.71858       -2.14869       -0.40817
C          0.93537       -1.20670        0.33661
H          0.43604       -2.14634        0.55992
H         -3.07536       -0.00000        0.65238
