16
id_359_ca.log	Energy: -599063.6471517
C         -0.34474        0.57701        0.68114
H          0.03578        1.42241        1.27229
H         -0.10465       -0.33870        1.23496
C          0.34474        0.57700       -0.68114
H         -0.03578        1.42240       -1.27230
H          0.10464       -0.33871       -1.23496
C          1.85966        0.72661       -0.59715
H          2.13168        1.64732       -0.07285
H          2.29225        0.77727       -1.60003
S          2.72435       -0.67737        0.20064
H          2.24212       -0.49204        1.44178
C         -1.85967        0.72662        0.59715
H         -2.13168        1.64731        0.07284
H         -2.29225        0.77728        1.60002
S         -2.72435       -0.67737       -0.20064
H         -2.24213       -0.49204       -1.44178
