17
id_385_cb.log	Energy: -373578.2158693
C          2.22703        0.41087       -0.03679
H          1.92755        1.45160        0.12446
H          3.13022        0.40518       -0.65726
H          2.49376       -0.02079        0.93436
C          1.10343       -0.37101       -0.71043
H          1.41318       -1.42515       -0.79886
H          0.96395        0.00122       -1.73393
C         -0.26643       -0.33634        0.00006
C         -0.11476       -0.85004        1.43716
H          0.48180       -0.16658        2.04924
H          0.37236       -1.83736        1.45139
H         -1.09734       -0.95030        1.91240
C         -1.19337       -1.29906       -0.75155
H         -2.19128       -1.31223       -0.29910
H         -0.79412       -2.32461       -0.73134
H         -1.30225       -0.99748       -1.79987
S         -0.99583        1.36563       -0.00514
