19
id_320_cb.log	Energy: -289069.5514866
C          3.65272        0.00164        0.00003
H          3.77640        0.62705        0.88948
H          3.77642        0.62703       -0.88944
H          4.43897       -0.75915        0.00005
C          2.29539       -0.66675        0.00002
H          2.16829       -1.29692        0.88969
H          2.16831       -1.29695       -0.88964
O          1.30811        0.36018       -0.00001
C         -0.01657       -0.02280       -0.00001
C         -0.43953       -1.34528        0.00001
H          0.28527       -2.15325        0.00001
C         -1.81104       -1.65426        0.00001
H         -2.12885       -2.69257        0.00002
C         -2.73850       -0.61862       -0.00000
H         -3.80356       -0.83898       -0.00000
C         -2.31181        0.71373       -0.00001
H         -3.04088        1.52184       -0.00002
C         -0.94517        1.07222       -0.00001
O         -0.52727        2.31264       -0.00003
