45
id_31_cb.log	Energy: -828659.4250004
C          4.98703       -0.35518       -1.43637
H          5.39113       -0.36454       -2.44265
C          4.00630        0.55838       -1.07407
H          3.64032        1.27291       -1.80465
C          3.50449        0.56625        0.23037
C          3.99471       -0.33470        1.17821
H          3.61313       -0.30433        2.19348
C          4.96096       -1.26560        0.82334
H          5.33856       -1.97908        1.54753
C          5.45466       -1.26924       -0.48585
C          6.46292       -2.22308       -0.85928
N          7.27583       -2.99282       -1.16066
C          2.51639        1.59882        0.69881
O          2.73998        2.19120        1.75974
N          1.44773        1.88179       -0.09031
C          0.81424        0.86817       -0.94605
H          0.37067        1.38394       -1.80189
H          1.56126        0.17284       -1.32420
C         -0.25223        0.11553       -0.15156
H          0.24178       -0.43123        0.66294
H         -0.74970       -0.61433       -0.80026
C         -1.30288        1.06251        0.46367
C         -0.58627        2.15156        1.26653
H         -1.32289        2.87737        1.62376
H         -0.10421        1.69337        2.13927
C          0.47499        2.85184        0.42300
H          1.00467        3.60505        1.00396
H          0.01252        3.33829       -0.43964
N         -2.18196        0.33243        1.39137
H         -1.67562       -0.08247        2.17001
C         -3.06896       -0.53659        0.79309
C         -3.51805       -1.69417        1.43459
C         -4.43483       -2.54812        0.86406
H         -4.73897       -3.43902        1.40266
C         -4.94316       -2.25602       -0.40362
H         -5.65836       -2.90344       -0.89616
C         -4.50989       -1.10720       -1.03592
C         -3.58487       -0.22332       -0.47612
C         -3.11462        1.06292       -1.04674
N         -2.08730        1.69091       -0.59004
N         -3.88326        1.64695       -2.01854
H         -3.43105        2.40505       -2.51562
H         -4.46057        1.04611       -2.58875
F         -5.01033       -0.84652       -2.26317
F         -3.00249       -1.95985        2.65307
