22
id_362_ca.log	Energy: -1225620.1742719
C          4.02918        0.33043       -0.94472
H          3.93995        0.95399       -1.83713
H          4.75750       -0.46054       -1.13666
H          4.37418        0.94339       -0.10717
C          2.67317       -0.28206       -0.62673
C          2.77309       -1.13617        0.63006
O          2.37057       -0.79925        1.72320
O          3.38935       -2.29248        0.38349
H          3.47677       -2.80012        1.21471
O          1.77331        0.79249       -0.40385
C          0.44776        0.53334       -0.26924
C         -0.12865       -0.72995       -0.38480
H          0.46824       -1.61023       -0.59607
C         -1.50477       -0.88787       -0.23234
C         -2.32072        0.20763        0.03605
C         -1.75128        1.47384        0.14960
H         -2.37763        2.33541        0.35716
C         -0.38416        1.63171       -0.00194
Cl         0.31091        3.21636        0.13908
Cl        -4.03681        0.03705        0.23285
Cl        -2.17062       -2.48343       -0.38310
H          2.33446       -0.90314       -1.46329
