14
id_335_cb.log	Energy: -156608.3111715
C         -2.19526       -0.24138        0.08460
H         -2.66101        0.73192       -0.12095
H         -2.24483       -0.43189        1.16519
H         -2.74704       -1.02164       -0.44354
O         -0.85998       -0.27466       -0.37704
C         -0.06272        0.71291        0.25288
H         -0.44497        1.71674        0.01169
H         -0.10969        0.58660        1.34662
C          1.36486        0.54786       -0.23079
H          1.97497        1.34675        0.20002
H          1.38425        0.67667       -1.31796
N          1.97089       -0.74478        0.09530
H          1.33507       -1.46694       -0.24298
H          1.95553       -0.84386        1.11098
