8
id_333_cb.log	Energy: -190606.2741126
C          0.66656       -0.77351       -0.00000
H          0.67019       -1.41663       -0.88738
H          0.67019       -1.41664        0.88736
C         -0.62315        0.04999       -0.00000
O         -1.70894       -0.58742        0.00000
O         -0.49037        1.30472       -0.00000
O          1.81614        0.05818        0.00000
H          1.46448        0.97060        0.00001
