21
id_32_cb.log	Energy: -523679.8247692
C         -3.99256        0.50799       -0.12686
H         -5.07345        0.60740       -0.16195
C         -3.20863        1.54350        0.38249
H         -3.67611        2.45114        0.75299
C         -1.82244        1.41361        0.43308
H         -1.21965        2.21412        0.85323
C         -1.19787        0.25002       -0.03533
C         -1.99346       -0.79025       -0.53712
H         -1.53480       -1.70242       -0.90909
C         -3.37992       -0.65897       -0.58405
H         -3.98109       -1.47116       -0.98221
C          0.28531        0.14690       -0.01564
C          1.09033        1.18172       -0.28252
H          0.63368        2.14141       -0.52149
C          2.60491        1.19186       -0.30111
O          3.17541        0.59885       -1.25139
O          3.15854        1.84760        0.61972
C          0.86848       -1.20873        0.29195
F          0.95859       -1.99120       -0.80809
F          0.12000       -1.89463        1.17915
F          2.10529       -1.14506        0.81476
