15
id_359_cb.log	Energy: -598764.4572170
C         -0.38578        0.61270        0.69064
H         -0.03208        1.43844        1.32844
H         -0.11921       -0.32189        1.20360
C          0.33422        0.69635       -0.65236
H          0.00030        1.60204       -1.17848
H          0.04928       -0.15752       -1.27710
C          1.85291        0.77221       -0.54114
H          2.15267        1.64026        0.05302
H          2.30355        0.85505       -1.53265
S          2.51143       -0.74769        0.25777
C         -1.90973        0.69280        0.57310
H         -2.16431        1.63050        0.05958
H         -2.32581        0.77221        1.58470
S         -2.70002       -0.72494       -0.29618
H          3.80344       -0.54127       -0.04809
