59
id_37_cb.log	Energy: -1678818.8524759
C         -0.04406       -2.09484        1.23814
H          0.96101       -2.04171        1.64754
C         -0.24312       -1.95013       -0.13630
H          0.60350       -1.78102       -0.79639
C         -1.53009       -2.01611       -0.66648
H         -1.69437       -1.90346       -1.73456
C         -2.60818       -2.23390        0.19321
C         -2.42438       -2.37793        1.56632
H         -3.27624       -2.54991        2.21613
C         -1.13111       -2.30702        2.08637
H         -0.97593       -2.42095        3.15499
S         -4.25766       -2.28776       -0.50959
O         -4.12681       -2.95445       -1.82553
O         -5.11577       -3.01672        0.45371
N         -4.68640       -0.77697       -0.81130
C         -4.76950        0.07354        0.25574
O         -4.79518       -0.26578        1.45923
N         -4.86445        1.41523       -0.09052
C         -4.53510        2.36491        0.98003
H         -4.90280        3.34686        0.66370
H         -5.06484        2.08701        1.89061
C         -3.02449        2.41349        1.21541
H         -2.70577        1.43730        1.60186
H         -2.79486        3.16363        1.98062
C         -2.26824        2.75064       -0.07534
H         -2.53378        3.78351       -0.34338
C         -2.72895        1.84396       -1.23065
H         -2.27978        2.16633       -2.17736
H         -2.41238        0.80827       -1.04755
C         -4.25228        1.84549       -1.35575
H         -4.58300        1.19432       -2.16275
H         -4.62075        2.85575       -1.56568
N         -0.80936        2.76168        0.15887
C         -0.08907        3.49272       -0.88769
H         -0.17480        2.98435       -1.86517
H         -0.53793        4.48500       -0.99411
C          1.39069        3.63413       -0.53595
H          1.50053        4.21622        0.38735
H          1.91286        4.16436       -1.33942
C          2.01069        2.26143       -0.33181
H          2.00765        1.72459       -1.29028
C          1.22320        1.48202        0.71334
H          1.61048        0.46421        0.83157
H          1.31481        1.99325        1.67962
C         -0.23819        1.41663        0.28278
H         -0.81266        0.83578        1.01039
H         -0.28847        0.87388       -0.67769
O          3.37219        2.47387        0.07672
C          4.24259        1.42749        0.07876
C          5.49680        1.67880        0.64928
H          5.70317        2.66126        1.06172
C          6.45797        0.68241        0.68627
H          7.42869        0.87765        1.13087
C          6.18727       -0.58092        0.15852
C          4.94107       -0.82435       -0.41150
C          3.96365        0.16976       -0.45904
H          3.00750       -0.06433       -0.91206
Cl         4.55396       -2.38309       -1.08214
Cl         7.41156       -1.81493        0.23558
