23
id_303_ca.log	Energy: -358261.4434471
C         -3.90366       -0.27872        0.01351
H         -4.80588        0.33607        0.03443
H         -3.90421       -0.92378        0.89667
H         -3.93053       -0.90142       -0.88513
C         -2.69586        0.63537        0.00745
H         -2.64474        1.24651        0.90839
H         -2.67158        1.27106       -0.87735
N         -1.45547       -0.21401       -0.02117
H         -1.49880       -0.82908       -0.84733
C         -0.15251        0.46885       -0.00962
C         -0.10139        1.85259       -0.00891
H         -1.01243        2.43665       -0.01556
C          1.13005        2.50875        0.00024
H          1.14658        3.59293        0.00067
C          2.31691        1.78851        0.00849
H          3.27321        2.29828        0.01556
C          2.27773        0.39981        0.00779
H          3.18639       -0.18885        0.01443
C          1.05259       -0.25255       -0.00133
N          1.08217       -1.71572        0.00050
O          0.01497       -2.31607        0.00248
O          2.16281       -2.27109        0.00006
H         -1.49027       -0.86861        0.77389
