15
id_338_cb.log	Energy: -310886.8123156
C          1.20806        0.01804        0.00000
H          2.14666        0.56336        0.00000
C          1.22640       -1.37207        0.00000
H          2.16250       -1.92276        0.00000
C          0.01950       -2.07395        0.00000
C         -1.19704       -1.38921       -0.00000
H         -2.12906       -1.94897       -0.00000
C         -1.19725        0.00276       -0.00000
H         -2.14351        0.53474       -0.00000
C         -0.00000        0.72567        0.00000
C         -0.00974        2.24088       -0.00000
O         -1.13339        2.81973       -0.00000
O          1.10667        2.83346        0.00000
O          0.08603       -3.44321        0.00000
H         -0.81058       -3.81900       -0.00000
