18
id_385_ca.log	Energy: -373877.5475861
C          2.24433        0.34285       -0.06731
H          2.02695        1.41658       -0.06934
H          3.16771        0.19653       -0.63669
H          2.44153        0.03632        0.96502
C          1.11281       -0.46682       -0.69358
H          1.39762       -1.52856       -0.70391
H          0.97887       -0.16477       -1.73950
C         -0.25155       -0.38891        0.01137
C         -0.16078       -0.83996        1.46838
H          0.46355       -0.17106        2.06881
H          0.27698       -1.84561        1.51169
H         -1.15574       -0.87706        1.92306
C         -1.25358       -1.26466       -0.74266
H         -2.24464       -1.22699       -0.27830
H         -0.90668       -2.30421       -0.72363
H         -1.34516       -0.95620       -1.79008
S         -0.95005        1.32599       -0.06999
H         -0.04749        1.91427        0.73553
