70
id_35_ca.log	Energy: -1187113.4757615
C         -0.17155        2.53805       -2.24685
H         -0.91308        1.85467       -2.67723
H         -0.70342        3.39269       -1.81636
H          0.46256        2.89908       -3.05988
C          0.67185        1.85061       -1.22192
C          0.32442        1.39310        0.07535
C          1.50366        0.84489        0.56921
N          2.44777        0.98264       -0.37984
N          1.95137        1.59151       -1.47540
C          3.86377        0.61283       -0.31476
H          4.00172        0.16126        0.67177
C          4.76691        1.83970       -0.43281
H          4.57564        2.35275       -1.38177
H          4.57316        2.53975        0.38704
C          6.22191        1.38567       -0.38500
H          6.89876        2.22864       -0.53838
H          6.44644        0.92747        0.59025
O          6.50768        0.44501       -1.41626
C          5.71078       -0.72970       -1.28914
H          6.02139       -1.40261       -2.09096
H          5.92955       -1.20966       -0.32275
C          4.22504       -0.40659       -1.39230
H          3.63791       -1.32250       -1.26874
H          4.01080        0.01384       -2.38153
N          1.74543        0.24593        1.82078
H          1.05919        0.61413        2.49195
S          1.63930       -1.44643        1.86770
O          1.50971       -1.75790        3.28973
O          2.78360       -1.95565        1.11682
C          0.16497       -1.90741        1.01076
C          0.23784       -2.20633       -0.35047
H          1.19054       -2.18586       -0.87218
C         -0.92725       -2.55013       -1.02462
H         -0.86411       -2.79655       -2.08126
C         -2.16090       -2.59879       -0.35549
C         -2.20220       -2.26470        1.00751
H         -3.15185       -2.29303        1.53528
C         -1.04738       -1.91675        1.69886
H         -1.08964       -1.66850        2.75537
C         -3.40969       -3.00839       -1.04260
H         -4.28933       -3.00101       -0.40589
C         -3.37632       -4.07395       -2.11769
H         -2.40577       -4.49657       -2.36165
H         -4.20430       -4.77502       -2.13781
C         -3.64132       -2.65300       -2.49315
H         -4.65210       -2.37244       -2.77161
H         -2.85331       -2.09898       -2.99606
C         -0.92337        1.45147        0.85953
O         -0.89600        1.27449        2.09686
N         -2.06074        1.69973        0.19637
H         -2.02076        1.78698       -0.81225
C         -3.36155        1.84625        0.85933
C         -3.41953        3.18119        1.60303
H         -2.54863        3.28101        2.25675
H         -4.31528        3.24068        2.22706
H         -3.42112        4.02452        0.90505
C         -4.50098        1.62586       -0.16633
C         -5.84449        1.75126        0.56230
H         -6.04328        2.78039        0.87792
H         -6.65657        1.44498       -0.10640
H         -5.87392        1.10689        1.44960
C         -4.46417        2.64508       -1.31363
H         -4.55084        3.67378       -0.94893
H         -3.55192        2.57258       -1.91909
H         -5.30854        2.45908       -1.98722
C         -4.39107        0.20889       -0.74127
H         -5.22377        0.01471       -1.42748
H         -3.45973        0.05889       -1.30015
H         -4.42851       -0.53822        0.06091
H         -3.42979        1.03398        1.59557
