20
id_378_ca.log	Energy: -567732.1426320
C          0.47491       -1.37226        0.00574
H          0.73723       -2.42340        0.01368
C          1.47623       -0.40621        0.01187
C          1.19081        0.94352        0.00424
H          1.97656        1.69003        0.00856
C         -0.14109        1.32862       -0.01148
C         -1.20489        0.38815       -0.01391
C         -0.85663       -0.98793        0.00114
C         -1.91352       -2.04135        0.03346
O         -3.07473       -1.86054        0.33693
O         -1.43071       -3.24381       -0.30013
H         -2.14941       -3.90238       -0.22886
O         -2.48278        0.71962       -0.04132
H         -2.57375        1.69834       -0.07429
N         -0.40163        2.75893       -0.02415
O          0.54054        3.52542        0.00385
O         -1.57245        3.13967       -0.06391
N          2.87094       -0.82856        0.02913
O          3.10702       -2.02671        0.03513
O          3.73427        0.03505        0.03690
