9
id_333_ca.log	Energy: -190886.0736446
C          0.76297       -0.73238        0.01221
H          0.80611       -1.41248       -0.84232
H          0.82484       -1.33380        0.92665
C         -0.60604       -0.08681       -0.00183
O         -1.63395       -0.73849        0.01073
O         -0.58107        1.24524       -0.01622
H         -1.49836        1.58325       -0.01190
O          1.83949        0.17039       -0.10262
H          1.93013        0.66106        0.73015
