20
id_320_ca.log	Energy: -289364.8077508
C          3.64343       -0.03698        0.00006
H          3.76203        0.58796        0.89021
H          3.76214        0.58784       -0.89016
H          4.43368       -0.79329        0.00016
C          2.29448       -0.71806        0.00003
H          2.16303       -1.34255        0.89125
H          2.16314       -1.34266       -0.89114
O          1.29455        0.30759       -0.00010
C         -0.01589       -0.08058       -0.00005
C         -0.47444       -1.39417       -0.00004
H          0.22756       -2.22083       -0.00007
C         -1.85205       -1.64620        0.00000
H         -2.20229       -2.67376        0.00001
C         -2.76036       -0.59295        0.00004
H         -3.82824       -0.78846        0.00008
C         -2.30006        0.72774        0.00004
H         -2.98964        1.56712        0.00007
C         -0.93739        0.98188       -0.00000
O         -0.48981        2.27971       -0.00001
H          0.48441        2.27606        0.00003
