61
id_38_ca.log	Energy: -1679391.2401954
C          0.05375       -1.98153        1.27746
H         -0.95008       -1.89518        1.68357
C          0.24513       -1.94757       -0.10538
H         -0.60391       -1.83204       -0.77305
C          1.52759       -2.06251       -0.63562
H          1.68997       -2.04516       -1.70942
C          2.59859       -2.21616        0.24633
C          2.43114       -2.24637        1.62936
H          3.28476       -2.37431        2.28679
C          1.14015       -2.12471        2.14116
H          0.98564       -2.15117        3.21504
S          4.22615       -2.40286       -0.43672
O          5.09632       -3.01940        0.55354
O          4.12071       -2.99708       -1.76737
N          4.78580       -0.85196       -0.76099
C          4.81695        0.11735        0.25381
O          4.87888       -0.23591        1.42969
N          4.82915        1.41930       -0.15277
C          4.20456        1.82324       -1.42266
H          4.54453        1.20459       -2.25324
H          4.55289        2.83742       -1.63620
C          2.68196        1.79021       -1.28075
H          2.21803        2.09215       -2.22473
H          2.37922        0.75760       -1.06331
C          2.28064        2.72977       -0.14313
H          2.50475        3.75999       -0.44048
C          3.02183        2.42822        1.16139
H          2.78849        3.19734        1.90587
H          2.71683        1.45646        1.56734
C          4.52921        2.39594        0.90723
H          4.88901        3.36838        0.56161
H          5.07132        2.13012        1.81271
N          0.78483        2.72230        0.11020
H          0.65249        3.19346        1.01708
C          0.19084        1.34693        0.24419
H          0.79608        0.78191        0.95472
H          0.25725        0.87860       -0.74087
C         -1.25643        1.44487        0.69588
H         -1.64029        0.42723        0.81476
H         -1.31987        1.94486        1.67052
C         -2.05983        2.24152       -0.32742
H         -2.06536        1.72780       -1.29754
C         -1.44774        3.62360       -0.49919
H         -1.98005        4.18309       -1.27360
H         -1.53600        4.17691        0.44405
C          0.01552        3.52302       -0.90423
H          0.47921        4.50909       -0.95515
H          0.13331        3.01623       -1.86502
O         -3.40482        2.44446        0.11258
C         -4.27817        1.39648        0.10198
C         -5.52215        1.63813        0.69627
H         -5.72059        2.61125        1.13385
C         -6.48420        0.64230        0.72368
H         -7.44820        0.82868        1.18623
C         -6.22279       -0.60876        0.16291
C         -4.98520       -0.84150       -0.42973
C         -4.00686        0.15254       -0.46800
H         -3.05782       -0.07294       -0.94020
Cl        -4.61014       -2.38438       -1.14091
Cl        -7.44801       -1.84179        0.22727
H          4.57452       -0.57581       -1.71764
