46
id_31_ca.log	Energy: -828951.2531924
C         -5.00603        0.35717       -1.43369
H         -5.40750        0.35692       -2.44102
C         -4.02388       -0.55076       -1.06114
H         -3.65534       -1.27144       -1.78439
C         -3.52652       -0.54572        0.24497
C         -4.02152        0.36162        1.18422
H         -3.64272        0.34052        2.20071
C         -4.98952        1.28639        0.81873
H         -5.37183        2.00439        1.53591
C         -5.47905        1.27742       -0.49196
C         -6.48960        2.22479       -0.87587
N         -7.30435        2.98931       -1.18525
C         -2.53849       -1.57067        0.72620
O         -2.74833       -2.14149        1.79916
N         -1.47575       -1.87524       -0.06999
C         -0.83678       -0.87771       -0.93799
H         -0.38512       -1.40930       -1.78169
H         -1.57743       -0.18921       -1.33946
C          0.21729       -0.09980       -0.14933
H         -0.28037        0.45181        0.65788
H          0.71441        0.62474       -0.80328
C          1.25911       -1.02771        0.49708
C          0.56469       -2.13910        1.28324
H          1.30941       -2.85651        1.63852
H          0.08943       -1.67571        2.15507
C         -0.51083       -2.84257        0.45457
H         -1.03647       -3.57311        1.06647
H         -0.07884       -3.37392       -0.40015
N          2.15979       -0.30367        1.38604
H          1.68500        0.09588        2.19223
C          3.06796        0.53758        0.78922
C          3.55631        1.66811        1.45460
C          4.49506        2.50337        0.89887
H          4.82446        3.37315        1.45680
C          5.00169        2.22895       -0.37725
H          5.73599        2.86895       -0.85031
C          4.54196        1.11292       -1.03491
C          3.58453        0.24521       -0.48771
C          3.13294       -0.99635       -1.10741
N          2.11992       -1.63476       -0.53362
N          3.73101       -1.52022       -2.15916
H          3.38618       -2.38368       -2.56808
H          4.55553       -1.09142       -2.55932
F          5.02742        0.84280       -2.25893
F          3.04995        1.91782        2.67532
H          1.81534       -2.51258       -0.94952
