15
id_397_cb.log	Energy: -513535.9085573
C         -1.20681       -1.80982        0.00000
H         -1.69450       -2.78106        0.00000
C          0.18496       -1.73621       -0.00000
H          0.79039       -2.63567       -0.00000
C          0.77946       -0.46849       -0.00000
C          0.00000        0.69093        0.00000
H          0.49412        1.65830        0.00000
C         -1.40853        0.63883        0.00000
C         -1.98327       -0.65293        0.00000
H         -3.06696       -0.73976        0.00000
S         -2.38955        2.09608        0.00000
C          2.25594       -0.31483       -0.00000
O          2.84416        0.75478       -0.00000
O          2.91857       -1.48286       -0.00000
H          3.87741       -1.29940       -0.00000
