18
id_316_ca.log	Energy: -408344.4173758
C          1.38741        1.32078       -0.56214
H          2.47077        1.36601       -0.40333
H          0.93854        2.19612       -0.08002
H          1.20251        1.38108       -1.64133
C          0.85490        0.01181        0.03156
C          1.55078       -1.18968       -0.62110
H          2.62895       -1.11733       -0.43821
H          1.39304       -1.20678       -1.70618
H          1.19545       -2.13659       -0.20185
C          1.04266       -0.01463        1.55162
H          2.11327        0.05348        1.77692
H          0.66212       -0.94481        1.98633
H          0.53943        0.82976        2.03470
P         -0.91664       -0.12674       -0.35022
O         -1.58684       -1.35487        0.20211
O         -1.65722        1.19054        0.23417
H         -1.43775        2.02583       -0.21933
H         -1.01872       -0.00067       -1.74435
