15
id_324_ca.log	Energy: -263958.6030186
C          0.96554        1.80670       -0.00000
H          1.35371        2.82041       -0.00000
C         -0.41170        1.58163        0.00000
H         -1.11236        2.41241        0.00000
C         -0.88862        0.26939        0.00000
C         -0.00884       -0.82002        0.00000
H         -0.39093       -1.83797        0.00000
C          1.35937       -0.57844        0.00000
C          1.84973        0.73358       -0.00000
H          2.92411        0.89328       -0.00000
O          2.28557       -1.58825        0.00000
H          1.83981       -2.45248       -0.00002
C         -2.34771        0.05309        0.00000
H         -2.96522        0.96738       -0.00000
O         -2.88004       -1.04657       -0.00000
