35
id_323_cb.log	Energy: -1094736.8549609
C         -3.60195        0.56722       -0.26241
H         -4.47683        1.03393       -0.70141
C         -3.68877       -0.67126        0.36690
C         -2.57668       -1.27038        0.94348
H         -2.65903       -2.21565        1.46921
C         -1.36402       -0.61739        0.87202
C         -1.16140        0.63235        0.18869
C         -2.38033        1.19659       -0.31290
N         -2.35235        2.48984       -0.98767
O         -1.61213        3.35871       -0.55990
O         -3.10445        2.64615       -1.94104
N         -0.00001        1.23858       -0.00015
C          1.16142        0.63231       -0.18879
C          1.36406       -0.61746       -0.87203
C          2.57674       -1.27041       -0.94350
H          2.65910       -2.21570       -1.46918
C          3.68882       -0.67122       -0.36696
C          3.60195        0.56724        0.26235
H          4.47681        1.03398        0.70136
C          2.38029        1.19657        0.31285
N          2.35226        2.48979        0.98768
O          3.10433        2.64607        1.94108
O          1.61202        3.35865        0.55994
N          4.96920       -1.33655       -0.44445
O          5.94390       -0.77504        0.03872
O          5.02148       -2.43276       -0.98703
N          0.26995       -1.24424       -1.60955
O         -0.52101       -0.52485       -2.20223
O          0.21464       -2.46470       -1.61713
N         -0.26996       -1.24404        1.60969
O          0.52107       -0.52454        2.20216
O         -0.21473       -2.46450        1.61763
N         -4.96911       -1.33664        0.44436
O         -5.02137       -2.43285        0.98694
O         -5.94384       -0.77517       -0.03883
