26
id_346_cb.log	Energy: -372139.1601347
C         -1.41216       -0.77691       -0.63895
H         -1.61112       -0.03166       -1.41575
H         -1.04544       -1.69022       -1.12784
C         -2.71148       -1.07206        0.09092
H         -2.54324       -1.85412        0.84608
H         -3.46619       -1.43629       -0.61072
O         -3.23188        0.10254        0.69751
H         -2.49072        0.47314        1.20625
N         -0.45867       -0.21773        0.32541
H         -0.19392       -0.97599        0.95553
C          0.78066        0.33152       -0.24540
C          1.47379       -0.63731       -1.21494
H          2.44585       -0.21560       -1.51037
H          0.87364       -0.75232       -2.12365
O          1.62602       -1.93532       -0.65892
H          2.00356       -1.80018        0.23036
C          1.71915        0.67332        0.91817
H          1.23343        1.38987        1.58787
H          2.62563        1.13274        0.51262
O          2.14303       -0.48002        1.64752
H          1.49283       -0.66239        2.34339
C          0.44970        1.63481       -0.98284
H         -0.07750        1.41261       -1.92098
H          1.37636        2.15682       -1.24229
O         -0.31919        2.50454       -0.16847
H         -0.95425        1.92352        0.28881
