15
id_335_ca.log	Energy: -156901.5000098
C         -2.21114       -0.28950        0.07792
H         -2.72324        0.65989       -0.12279
H         -2.24548       -0.49186        1.15590
H         -2.71619       -1.09383       -0.45897
O         -0.87314       -0.24827       -0.38570
C         -0.12884        0.76912        0.25190
H         -0.50742        1.76483       -0.01312
H         -0.18537        0.65680        1.34473
C          1.29886        0.63656       -0.21982
H          1.95083        1.36464        0.26027
H          1.36769        0.73070       -1.30342
N          1.79516       -0.72935        0.13057
H          1.14300       -1.43694       -0.22892
H          1.86017       -0.85073        1.14810
H          2.72174       -0.90897       -0.27013
