22
id_305_ca.log	Energy: -479836.9484357
C          2.89562       -1.31629        0.94005
H          3.29966       -0.73903        1.77577
H          3.50129       -2.21965        0.81785
H          1.87742       -1.62348        1.19544
C          2.93156       -0.49982       -0.34256
H          2.60921       -1.07891       -1.21148
H          3.94761       -0.15356       -0.55189
S          1.96920        1.04593       -0.25855
C          0.28973        0.48703       -0.14486
C         -0.65709        1.42672        0.28805
H         -0.34102        2.42631        0.57067
C         -2.00163        1.09307        0.36173
H         -2.73612        1.82022        0.69446
C         -2.38985       -0.19221        0.00943
C         -1.47804       -1.14194       -0.41688
H         -1.80831       -2.13971       -0.69022
C         -0.13115       -0.79793       -0.49959
H          0.57403       -1.54417       -0.84785
N         -3.80929       -0.55565        0.11279
H         -4.01207       -1.42717       -0.39339
H         -4.41587        0.17788       -0.27667
H         -4.09281       -0.69587        1.09231
