15
id_386_ca.log	Energy: -430245.9332931
C          2.06303        1.10581       -0.27780
H          2.66079        1.97766       -0.52701
C          2.60200       -0.17564       -0.36081
H          3.62676       -0.34203       -0.67578
C          1.78954       -1.25436       -0.02380
H          2.17734       -2.26847       -0.07269
N          0.51784       -1.12944        0.37525
C          0.00361        0.10686        0.45029
C          0.74217        1.24977        0.13379
H          0.28080        2.22979        0.21281
C         -1.43289        0.21295        0.87410
H         -1.65348        1.21332        1.25304
H         -1.65933       -0.51559        1.65474
S         -2.59115       -0.03557       -0.52729
H         -2.20405       -1.29177       -0.80985
