22
id_32_ca.log	Energy: -523958.9382055
C          3.99967       -0.59249       -0.12637
H          5.07638       -0.73026       -0.15916
C          3.19530       -1.52216        0.53191
H          3.64186       -2.38369        1.01923
C          1.81388       -1.34523        0.57528
H          1.18940       -2.06131        1.10243
C          1.22465       -0.23338       -0.03941
C          2.03855        0.70358       -0.69219
H          1.59751        1.56608       -1.18462
C          3.41766        0.51832       -0.73940
H          4.03794        1.24354       -1.25749
C         -0.25262       -0.08447       -0.02784
C         -1.05447       -1.13001       -0.26578
H         -0.60734       -2.10217       -0.45692
C         -2.53851       -1.10214       -0.32941
O         -3.21194       -0.17793       -0.73845
O         -3.05969       -2.26711        0.07565
H         -4.03294       -2.23030       -0.01013
C         -0.81660        1.28984        0.29687
F         -1.22863        1.95113       -0.79933
F          0.09844        2.07251        0.89501
F         -1.85812        1.22606        1.14288
