22
id_343_ca.log	Energy: -277176.4092100
C          3.63689       -0.59916        0.22655
H          4.63877       -0.19787        0.37678
H          3.60389       -1.16144       -0.71225
H          3.37708       -1.25930        1.06037
O          2.76891        0.52608        0.17794
C          1.44087        0.28465       -0.00124
C          0.88918       -0.98995       -0.14832
H          1.51087       -1.87689       -0.12837
C         -0.48695       -1.11802       -0.33006
H         -0.91664       -2.10957       -0.44773
C         -1.31750       -0.00028       -0.36942
C         -0.74919        1.27043       -0.21999
H         -1.38597        2.15098       -0.25157
C          0.61598        1.41639       -0.03785
H          1.06832        2.39643        0.07399
C         -2.80023       -0.15518       -0.53083
H         -3.06261       -1.07386       -1.05539
H         -3.25060        0.69675       -1.03989
N         -3.46361       -0.23680        0.81780
H         -3.28102        0.61299        1.36436
H         -3.10230       -1.03576        1.35176
H         -4.48018       -0.34681        0.72678
