20
id_330_ca.log	Energy: -526482.5345010
C          4.24233       -0.63307        0.18892
H          4.02065       -1.15360        1.12577
H          5.25699       -0.23768        0.21744
H          4.13595       -1.32023       -0.65614
O          3.39065        0.49921        0.02848
C          2.05043        0.28189       -0.02893
C          1.25508        1.42857       -0.18033
H          1.73747        2.39924       -0.24203
C         -0.12181        1.30757       -0.24401
H         -0.72973        2.20282       -0.35781
C         -0.72700        0.04312       -0.15983
C          0.07198       -1.09131       -0.01744
H         -0.38554       -2.07478        0.04481
C          1.46098       -0.98291        0.05292
H          2.06116       -1.87777        0.16863
P         -2.50750       -0.11699       -0.25970
O         -3.00462       -1.50270        0.02803
O         -3.13674        0.93298        0.79749
H         -2.96577        1.87342        0.59871
H         -2.90488        0.38441       -1.50363
