21
id_305_cb.log	Energy: -479555.7167176
C          2.59154        1.39034        1.03261
H          3.02225        2.00433        0.23634
H          3.08413        1.64992        1.97548
H          1.53051        1.64182        1.12542
C          2.77681       -0.08844        0.73940
H          2.37328       -0.70686        1.54643
H          3.83615       -0.33785        0.62749
S          2.00155       -0.62697       -0.83140
C          0.28299       -0.34152       -0.45502
C         -0.37449        0.79728       -0.93114
H          0.17202        1.51995       -1.53048
C         -1.71747        1.01551       -0.64976
H         -2.21778        1.90287       -1.02838
C         -2.44130        0.09871        0.12756
C         -1.78080       -1.04430        0.60634
H         -2.33264       -1.76507        1.20388
C         -0.44127       -1.25980        0.31338
H          0.05033       -2.15546        0.68355
N         -3.76593        0.34595        0.46738
H         -4.29980       -0.48902        0.68316
H         -4.25788        0.93863       -0.19248
