11
id_357_cb.log	Energy: -308391.0736033
C         -1.72686       -0.96298        0.03078
H         -1.74643       -1.00594        1.12566
H         -1.37576       -1.92522       -0.35793
H         -2.74983       -0.80309       -0.32261
C         -0.86753        0.21755       -0.43602
C          0.57885       -0.03677       -0.02203
F          0.73815       -0.10678        1.31934
F          1.08174       -1.19397       -0.51936
F          1.41313        0.94008       -0.44516
O         -1.28864        1.43534        0.05874
H         -0.82272        0.19078       -1.54477
