24
id_342_ca.log	Energy: -395685.8605517
C         -3.87464       -0.48621        0.00000
H         -4.88571       -0.88177        0.00000
C         -3.67643        0.92948        0.00000
H         -4.54275        1.58455        0.00000
C         -2.41852        1.46350       -0.00000
H         -2.25880        2.53790        0.00000
C         -1.27094        0.60977       -0.00000
C         -1.46933       -0.81259       -0.00000
C         -2.80265       -1.33216        0.00000
H         -2.93622       -2.41095        0.00000
C         -0.34337       -1.63864       -0.00000
H         -0.46491       -2.72020       -0.00000
C          0.93577       -1.08034       -0.00000
C          2.13879       -1.85416       -0.00000
H          2.06381       -2.93780       -0.00000
C          3.35105       -1.22284        0.00000
H          4.26792       -1.80453        0.00000
C          3.44959        0.20136       -0.00000
H          4.42179        0.68479        0.00000
C          2.31710        0.96476       -0.00000
C          1.01635        0.34884        0.00000
N         -0.04584        1.16155       -0.00000
O          2.38424        2.32638        0.00000
H          1.46514        2.66152        0.00001
