32
id_376_cb.log	Energy: -596354.7578823
C          0.12860        1.20127       -0.10140
H         -0.49457        2.08852       -0.11179
C          1.53291        1.36233        0.02904
C          2.38342        0.27840        0.05006
H          3.45335        0.41281        0.14767
C          1.84585       -0.99852       -0.07530
C          0.41669       -1.24599       -0.21187
C         -0.42602       -0.04076       -0.21000
C         -1.91804       -0.25684       -0.30628
H         -2.08039       -1.07907       -1.01782
C         -2.49107       -0.70904        1.05210
H         -1.93424       -1.57483        1.42741
H         -2.34750        0.10871        1.77390
C         -3.98111       -1.03931        0.94043
H         -4.37403       -1.33354        1.92072
H         -4.10607       -1.90360        0.27238
C         -4.77159        0.14673        0.38392
H         -5.82768       -0.12224        0.26458
H         -4.73105        0.97536        1.10565
C         -4.18984        0.62009       -0.95025
H         -4.73954        1.49555       -1.31485
H         -4.31358       -0.17247       -1.70199
C         -2.70266        0.95760       -0.81400
H         -2.59812        1.79124       -0.10509
H         -2.29461        1.29665       -1.77444
O         -0.10298       -2.38152       -0.31128
N          2.79013       -2.07721       -0.05022
O          3.95394       -1.83945        0.29211
O          2.43875       -3.21035       -0.37115
N          2.08427        2.67498        0.13652
O          1.31928        3.64105        0.11252
O          3.30407        2.81237        0.25169
