21
id_368_cb.log	Energy: -266546.8084151
C          3.21715        0.18798        0.01516
H          3.60821        0.00466        1.02327
H          3.54558        1.18631       -0.29004
H          3.68318       -0.54549       -0.65108
C          1.71120        0.07582       -0.01087
C          0.90992        1.22191       -0.01049
H          1.37463        2.20629       -0.01791
C         -0.49152        1.11959       -0.00157
C         -1.10779       -0.13792        0.00498
C         -0.31239       -1.32848       -0.00264
C          1.09808       -1.17639       -0.00999
H          1.70833       -2.07972       -0.01654
O         -0.87194       -2.51578       -0.00542
C         -2.60527       -0.30761        0.01328
H         -2.93115       -0.89920        0.87823
H         -2.94901       -0.85114       -0.87642
H         -3.13169        0.64868        0.04439
C         -1.31161        2.39106       -0.00400
H         -0.65825        3.26830       -0.01727
H         -1.95196        2.46323        0.88270
H         -1.96898        2.44868       -0.87923
