24
id_370_cb.log	Energy: -961614.7947283
C         -2.02747       -1.52952       -0.10059
H         -2.51533       -2.48375        0.06920
C         -0.71599       -1.49576       -0.56998
H         -0.20798       -2.43466       -0.75520
C         -0.06638       -0.27817       -0.79374
C         -0.77436        0.90652       -0.53107
C         -2.08089        0.88856       -0.06372
H         -2.60319        1.81970        0.13091
C         -2.69697       -0.34008        0.14933
Cl        -4.34145       -0.37530        0.74342
Cl        -0.00035        2.44309       -0.79765
O          1.19669       -0.14712       -1.26273
C          2.00166       -1.32468       -1.43701
H          1.43568       -2.07984       -1.99160
H          2.82429       -0.98449       -2.07085
C          2.54458       -1.86496       -0.12335
H          1.72957       -2.19197        0.53137
H          3.13313       -2.75631       -0.37009
C          3.43017       -0.85655        0.60676
H          4.20453       -0.47469       -0.06658
H          3.94244       -1.36358        1.43466
C          2.68004        0.32327        1.23090
O          1.61025        0.07933        1.85917
O          3.20567        1.47097        1.12917
