21
id_343_cb.log	Energy: -276883.3394077
C          3.60752       -0.53947        0.22513
H          4.60417       -0.11628        0.34991
H          3.57735       -1.14053       -0.68990
H          3.36844       -1.17261        1.08616
O          2.71950        0.56559        0.14105
C          1.38974        0.28598       -0.01245
C          0.86352       -1.00238       -0.10119
H          1.50420       -1.87510       -0.05171
C         -0.51480       -1.16556       -0.26108
H         -0.91974       -2.17247       -0.33206
C         -1.37854       -0.07560       -0.33592
C         -0.82653        1.20966       -0.24329
H         -1.48078        2.07721       -0.30001
C          0.53781        1.39521       -0.08422
H          0.96874        2.38946       -0.01753
C         -2.87334       -0.26199       -0.44876
H         -3.08620       -1.25556       -0.85362
H         -3.28325        0.46797       -1.15335
N         -3.60831       -0.11967        0.81806
H         -3.39264        0.80490        1.19275
H         -3.19044       -0.76907        1.48520
