14
id_325_cb.log	Energy: -239923.5719605
C         -1.70571       -0.73653        0.88064
H         -0.92112       -1.35962        1.32638
H         -2.64887       -1.28644        0.95551
H         -1.79894        0.17271        1.48452
C         -1.38516       -0.40263       -0.57374
H         -2.21921        0.14277       -1.03092
H         -1.24537       -1.32199       -1.15286
C         -0.12955        0.46026       -0.72345
C          1.06912       -0.21241       -0.03380
O          1.55570        0.38427        0.96734
O          1.45924       -1.31332       -0.50335
O         -0.34380        1.75613       -0.17456
H          0.26094        1.81207        0.59141
H          0.11131        0.57161       -1.78736
