13
id_381_ca.log	Energy: -691290.4095283
C         -1.33476        0.45716        0.24150
H         -1.18751        1.40012       -0.29052
H         -1.22680        0.64213        1.31150
C         -0.34535       -0.59465       -0.23809
H         -0.41265       -0.77467       -1.31518
H         -0.46049       -1.54689        0.29134
S          1.34676       -0.10737        0.07258
O          2.24634       -1.10780       -0.48976
O          1.51052        0.29381        1.46219
O          1.50582        1.25877       -0.75360
H          1.59308        1.09361       -1.71663
S         -3.04968       -0.04623       -0.12120
H         -3.07979       -1.08987        0.72630
