27
id_346_ca.log	Energy: -372430.8797456
C         -1.21983       -1.34315       -0.18186
H         -1.24113       -1.05083       -1.23146
H         -0.87655       -2.37363       -0.10294
C         -2.58993       -1.15416        0.42571
H         -2.57695       -1.40246        1.49227
H         -3.29440       -1.81969       -0.08345
O         -2.94233        0.21315        0.23181
H         -3.63061        0.45174        0.87213
N         -0.23278       -0.46598        0.54250
H          0.33560       -1.05456        1.16440
C          0.71360        0.35843       -0.29739
C          1.47557       -0.58651       -1.23191
H          2.31245       -0.02547       -1.66714
H          0.83232       -0.91708       -2.05208
O          1.91339       -1.75037       -0.55472
H          2.48729       -1.44045        0.17070
C          1.66980        1.06866        0.66802
H          1.10785        1.67538        1.38486
H          2.29535        1.73503        0.06702
O          2.53395        0.15745        1.33638
H          2.17823       -0.03197        2.21867
C         -0.10428        1.39704       -1.07092
H         -0.69857        0.91368       -1.85483
H          0.60016        2.07497       -1.56200
O         -0.92479        2.15753       -0.20448
H         -1.76453        1.66807       -0.09688
H         -0.74844        0.19521        1.14125
