15
id_377_cb.log	Energy: -396102.0738501
C          3.03260       -0.77321        0.20329
H          3.12377       -0.68016        1.29015
H          4.02522       -0.64216       -0.23834
H          2.68057       -1.78234       -0.03332
C          2.07970        0.26743       -0.34512
H          1.99756        0.18315       -1.43890
H          2.43442        1.28278       -0.11306
O          0.80021        0.06970        0.23720
C         -0.15128        1.01988       -0.22198
H          0.21000        2.02881        0.03959
H         -0.22800        0.95873       -1.31852
C         -1.50535        0.77334        0.41697
H         -2.12065        1.65184        0.18678
H         -1.36635        0.76841        1.50629
S         -2.36826       -0.75320       -0.13108
