20
id_344_ca.log	Energy: -275936.1387745
C         -0.10879        1.28623       -0.36859
H          0.05249        1.43236       -1.44062
H          0.58421        1.93383        0.17672
C          0.19020       -0.18483       -0.06804
C          1.58414       -0.55862       -0.56812
H          1.57929       -0.47055       -1.65888
H          1.79754       -1.60238       -0.30980
O          2.58142        0.31198       -0.06494
H          2.95385       -0.07885        0.74001
C         -0.86555       -1.11696       -0.67100
H         -0.52908       -2.15521       -0.58555
H         -0.96634       -0.87244       -1.73582
O         -2.10172       -1.02732        0.01236
H         -2.37838       -0.09431       -0.05901
N          0.15007       -0.38678        1.42145
H          0.33409       -1.36854        1.66736
H         -0.78275       -0.14859        1.78425
O         -1.45839        1.63934       -0.09452
H         -1.51661        1.98446        0.81029
H          0.85057        0.20077        1.89208
