13
id_329_ca.log	Energy: -262733.5533618
C          1.30937       -0.67450       -0.45569
H          2.25117       -0.36674       -0.92175
H          0.97802       -1.62020       -0.89724
C          0.27129        0.41002       -0.70253
C         -1.02994        0.04219       -0.00119
O         -1.52452        0.67891        0.90540
O         -1.56225       -1.08049       -0.49244
H         -2.38615       -1.29080       -0.00921
O          0.71608        1.67776       -0.27572
H          0.95107        1.61850        0.66692
O          1.45126       -0.78771        0.95567
H          2.18444       -1.39222        1.15053
H          0.07248        0.47737       -1.77606
