16
id_307_cb.log	Energy: -251487.2489760
C          2.03296       -1.06285        0.00087
H          2.83905       -1.78772        0.00326
C          2.30994        0.31494        0.01251
H          3.34137        0.65526        0.02632
C          1.29723        1.25391        0.00844
H          1.52767        2.31562        0.01715
C         -0.05845        0.85692       -0.00954
C         -0.34193       -0.53517       -0.01192
C          0.71364       -1.46657       -0.00887
H          0.46005       -2.52435       -0.01077
C         -1.69838       -1.05791        0.00240
H         -1.76737       -2.16107        0.00237
O         -2.72961       -0.38931        0.01855
N         -1.04374        1.79356       -0.06360
H         -1.99085        1.49485        0.12878
H         -0.79685        2.74729        0.16633
