8
id_374_cb.log	Energy: -385325.3188875
C          1.26453        0.35434        0.33536
H          1.09691        0.28033        1.42969
H          1.94952        1.22030        0.19838
C         -0.03889        0.84196       -0.28428
H          0.03528        0.89406       -1.37238
H         -0.34024        1.81173        0.11749
Cl        -1.42721       -0.28632        0.06021
O          1.77090       -0.81459       -0.21291
