15
id_354_ca.log	Energy: -240194.9492611
C         -2.92283        0.38574        0.04611
H         -3.52435        0.74336        0.88704
H         -3.46199       -0.43246       -0.44134
H         -2.80575        1.20594       -0.66887
C         -1.57556       -0.08482        0.54439
H         -1.68302       -0.90484        1.26677
H         -1.03004        0.73368        1.03121
O         -0.82416       -0.56025       -0.57708
C          0.46598       -0.98534       -0.22757
H          0.46522       -1.58397        0.69300
H          0.85294       -1.60993       -1.03943
C          1.42161        0.17864       -0.05873
O          1.16761        1.33588       -0.32159
O          2.61077       -0.23173        0.39700
H          3.21806        0.53172        0.45971
