15
id_332_ca.log	Energy: -383685.0642271
C         -3.05041       -0.15508       -0.13443
H         -3.24045       -1.15412        0.27265
H         -3.13322       -0.21309       -1.22521
H         -3.83419        0.51583        0.23065
C         -1.66786        0.34369        0.27646
H         -1.60994        0.41926        1.36911
H         -1.50623        1.35150       -0.12431
C         -0.56910       -0.59565       -0.23061
H         -0.57038       -0.65574       -1.32651
H         -0.71657       -1.61160        0.15757
P          1.08632       -0.09328        0.26089
O          2.18928       -1.00971       -0.19114
O          1.34047        1.38424       -0.35446
H          0.75085        2.08506       -0.01843
H          1.05156        0.10811        1.64735
