14
id_351_cb.log	Energy: -263693.8884760
C         -0.00000       -2.52904        0.00000
H          0.00001       -3.61546        0.00000
C         -1.20738       -1.82884        0.00000
H         -2.14990       -2.36897        0.00000
C         -1.20594       -0.43452        0.00000
H         -2.14497        0.11010        0.00000
C         -0.00000        0.27420        0.00000
C          1.20594       -0.43452        0.00000
H          2.14497        0.11011        0.00000
C          1.20738       -1.82883        0.00000
H          2.14989       -2.36897        0.00000
C         -0.00000        1.79535        0.00000
O          1.12007        2.37815        0.00000
O         -1.12006        2.37816        0.00000
