46
id_465_cb.log	Energy: -1390317.9160240
C         -6.19464        3.28573        0.83534
H         -6.87222        3.69637        0.08227
H         -5.32112        3.94225        0.89771
H         -6.69083        3.23650        1.80392
C         -5.74639        1.91817        0.42502
O         -5.82775        0.91257        1.10655
O         -5.21521        1.91463       -0.80841
C         -4.70489        0.65360       -1.29529
H         -5.46331       -0.11541       -1.16273
H         -4.54606        0.83112       -2.36187
C         -3.40272        0.31465       -0.61367
C         -3.08722       -0.93950       -0.24604
N         -1.89110       -1.17507        0.45613
C         -0.96658       -0.16039        0.95774
C          0.12007       -1.27275        1.02545
C         -0.92425       -2.13416        0.30395
O         -0.91426       -3.21408       -0.24947
N          1.36442       -1.11158        0.33455
H          1.39811       -1.25807       -0.67139
C          2.51286       -0.85395        0.98786
O          2.59201       -0.67051        2.20156
C          3.75815       -0.77687        0.12878
N          4.33587       -1.81225       -0.35265
O          3.69071       -2.97797       -0.00228
C          4.33888       -4.09483       -0.61276
H          4.29408       -4.01003       -1.70168
H          3.77877       -4.96889       -0.28008
H          5.37673       -4.15994       -0.27568
C          4.35317        0.55046       -0.06674
C          5.66500        0.79897       -0.32218
H          6.48841        0.10131       -0.39587
S          5.90526        2.50394       -0.49566
C          4.19786        2.74834       -0.18529
N          3.52105        1.65384        0.02015
N          3.64416        3.99581       -0.24984
H          4.24859        4.77765       -0.01947
H          2.72942        4.06123        0.18802
S         -0.72193        1.13703       -0.28399
C         -2.50757        1.51256       -0.37855
H         -2.80276        2.04680        0.53229
H         -2.62066        2.21360       -1.21140
C         -3.94666       -2.17468       -0.48444
O         -4.56380       -2.23981       -1.57745
O         -3.95762       -3.02912        0.43853
H         -1.27571        0.27097        1.91139
H          0.30144       -1.59376        2.05313
