44
id_469_ca.log	Energy: -931550.4062484
C          2.08992        2.36225       -0.80695
H          1.23566        2.93749       -1.17612
H          2.65458        3.00104       -0.11935
H          2.72499        2.10718       -1.65997
C          1.59080        1.12237       -0.06665
C          2.74262        0.22330        0.49871
N          2.22918       -1.13379        0.54505
C          1.29637       -1.51837       -0.53100
S          0.70652        0.03014       -1.27899
C          0.43894       -2.26578        0.53703
C          1.39836       -1.61638        1.53792
O          1.40944       -1.47342        2.73700
N         -0.91703       -1.83686        0.74928
H         -1.14350       -1.32146        1.59682
C         -1.79260       -1.85379       -0.26795
O         -1.55160       -2.34502       -1.36688
C         -3.14172       -1.19434        0.02840
C         -3.02382        0.31089        0.11942
C         -2.71934        1.06899       -1.01435
H         -2.56119        0.58471       -1.97504
C         -2.61208        2.45320       -0.91465
H         -2.38395        3.03976       -1.79893
C         -2.79034        3.08177        0.31798
H         -2.70526        4.16132        0.39327
C         -3.07274        2.32389        1.45260
H         -3.21006        2.80902        2.41358
C         -3.19427        0.93910        1.35349
H         -3.42935        0.34346        2.23139
N         -4.05730       -1.60082       -1.07760
H         -4.92894       -1.05773       -1.05212
H         -3.60259       -1.46693       -1.99053
C          3.97432        0.26765       -0.39273
O          4.13949       -0.48825       -1.32276
O          4.87515        1.22089       -0.13543
H          4.64119        1.74319        0.65337
C          0.64960        1.54484        1.06284
H         -0.20303        2.08826        0.64494
H          1.18121        2.20822        1.75438
H          0.26206        0.69622        1.63382
H          2.99543        0.54113        1.51471
H          1.73107       -2.15801       -1.29692
H          0.52045       -3.35216        0.45208
H         -3.55678       -1.59913        0.95312
H         -4.29429       -2.59854       -1.00590
