65
id_454_ca.log	Energy: -1018800.3286092
C         -5.75425       -1.97064       -0.70042
H         -6.17256       -2.60783        0.08247
H         -6.34758       -1.05540       -0.72679
H         -5.84699       -2.48512       -1.65908
C         -4.31328       -1.66415       -0.41287
C         -3.83119       -0.96057        0.64568
C         -2.35440       -0.63072        0.77318
C         -1.51784       -1.53941       -0.11343
C         -2.06443       -2.22095       -1.15867
N         -3.42878       -2.18860       -1.32952
H         -3.81571       -2.71444       -2.10424
C         -1.34987       -3.05707       -2.18273
H         -0.51442       -2.51021       -2.61999
H         -0.95094       -3.96554       -1.72466
H         -2.04074       -3.34322       -2.97851
C         -0.10386       -1.56496        0.24649
O          0.36285       -0.90769        1.16662
O          0.67079       -2.38999       -0.49353
C          2.05064       -2.45506       -0.13088
H          2.15269       -2.46753        0.95774
H          2.40650       -3.39705       -0.54656
C          2.77445       -1.25700       -0.73647
H          2.22692       -0.33793       -0.52104
H          2.89502       -1.36752       -1.81642
N          4.14367       -1.08935       -0.15710
C          4.98453       -2.30823       -0.33960
H          5.97987       -2.10854        0.05413
H          4.53634       -3.13538        0.20873
H          5.02924       -2.52773       -1.40754
C          4.80029        0.14020       -0.74457
H          4.95061       -0.08047       -1.80397
H          4.07042        0.94569       -0.64101
C          6.08983        0.47865       -0.05030
C          6.06594        1.09015        1.20658
H          5.11063        1.32619        1.67001
C          7.25625        1.39916        1.85829
H          7.23106        1.87461        2.83361
C          8.47826        1.10674        1.25307
H          9.40653        1.35297        1.75920
C          8.50794        0.50253       -0.00221
H          9.45752        0.27671       -0.47691
C          7.31618        0.18747       -0.65141
H          7.33243       -0.28525       -1.63014
C         -2.08530        0.83970        0.45618
C         -1.54287        1.70036        1.41387
H         -1.31024        1.30914        2.40086
C         -1.29861        3.04223        1.12498
H         -0.87757        3.69406        1.88271
C         -1.59329        3.55250       -0.13332
H         -1.41417        4.59087       -0.38264
C         -2.13170        2.68143       -1.07346
C         -2.38363        1.34169       -0.80872
H         -2.80641        0.70505       -1.57963
N         -2.44884        3.19983       -2.40450
O         -2.22748        4.37853       -2.63502
O         -2.92102        2.43244       -3.22908
C         -4.74624       -0.45051        1.66839
O         -5.95898       -0.60223        1.71099
O         -4.09195        0.24123        2.62142
C         -4.90825        0.78225        3.66411
H         -5.64268        1.47635        3.25058
H         -5.42143       -0.01838        4.20065
H         -4.22445        1.30659        4.32971
H         -2.04311       -0.78687        1.81046
H          4.03541       -0.92998        0.85449
