56
id_422_cb.log	Energy: -736605.7336499
C         -3.17184       -3.57083       -1.02282
H         -3.72094       -4.51610       -0.98679
H         -2.89432       -3.37972       -2.06494
H         -2.24884       -3.69406       -0.44810
C         -4.01681       -2.42764       -0.46945
H         -4.31457       -2.64010        0.56409
H         -4.93919       -2.32393       -1.05147
C         -3.30041       -1.09052       -0.50060
H         -3.96811       -0.28256       -0.17793
H         -2.95338       -0.86238       -1.51587
O         -2.18728       -1.17063        0.39672
C         -1.16812       -0.21004        0.20617
C         -1.75758        1.19526        0.13139
C         -2.43193        1.67008        1.26264
H         -2.45907        1.06021        2.16213
C         -3.06627        2.90646        1.24014
H         -3.58348        3.26364        2.12517
C         -3.03968        3.68379        0.08113
H         -3.53306        4.65050        0.06209
C         -2.38426        3.21095       -1.05083
H         -2.36732        3.80415       -1.95969
C         -1.74888        1.96835       -1.02872
H         -1.25220        1.61356       -1.92683
C         -0.16855       -0.39573        1.35573
C          0.15679       -1.69769        1.74753
H         -0.34914       -2.54043        1.28556
C          1.12814       -1.91645        2.72174
H          1.36964       -2.93174        3.02077
C          1.78961       -0.83762        3.30610
H          2.54698       -1.00744        4.06504
C          1.47755        0.46049        2.90681
H          1.99110        1.30698        3.35257
C          0.50723        0.68192        1.93055
H          0.28227        1.69662        1.61746
C         -0.34845       -0.60040       -1.04465
O         -0.56383       -1.58718       -1.71468
O          0.67589        0.22483       -1.22362
C          1.69636       -0.15081       -2.19180
H          1.19099       -0.42548       -3.12073
C          2.56125        1.08728       -2.36368
H          1.93739        1.94060       -2.64742
H          3.26445        0.89693       -3.18116
C          3.32883        1.40220       -1.08336
H          3.98172        2.26484       -1.24791
H          2.61672        1.68165       -0.28338
N          4.15416        0.26858       -0.65762
C          3.29147       -0.88651       -0.39288
H          3.91736       -1.71604       -0.04869
H          2.58005       -0.65867        0.42311
C          2.52034       -1.30807       -1.63758
H          3.21884       -1.62243       -2.42089
H          1.87562       -2.16076       -1.40543
C          4.84872        0.62644        0.57210
H          5.49197        1.49406        0.39966
H          5.47397       -0.20757        0.90365
H          4.14613        0.87384        1.38803
