31
id_436_cb.log	Energy: -385463.3384569
C         -2.80182       -2.09637        0.08653
H         -3.58892       -2.82581        0.25175
C         -1.55341       -2.50141       -0.38609
H         -1.35615       -3.54896       -0.59182
C         -0.56046       -1.55196       -0.59541
H          0.41272       -1.86501       -0.96951
C         -0.78590       -0.19337       -0.33682
C         -2.04145        0.21553        0.13668
C         -3.03486       -0.75008        0.34004
H         -4.00821       -0.42828        0.70357
C         -2.34513        1.66685        0.44690
H         -3.36939        1.89511        0.13315
H         -2.31864        1.80516        1.53635
C         -1.35075        2.62801       -0.19850
H         -1.51404        2.66372       -1.28315
H         -1.50600        3.63978        0.18793
C          0.07327        2.15941        0.08188
H          0.21269        2.04746        1.16437
H          0.81145        2.88590       -0.27203
C          0.32720        0.81324       -0.61304
C          1.67473        0.26575       -0.23433
N          2.68050        0.21786       -1.03052
C          3.79633       -0.31805       -0.22761
H          4.39121       -1.02886       -0.80327
H          4.45481        0.50899        0.06313
C          3.13631       -0.94977        1.00271
H          3.73292       -0.85416        1.91086
H          2.91148       -2.01043        0.83316
N          1.89966       -0.16045        1.07238
H          1.10348       -0.60699        1.51882
H          0.36501        0.99381       -1.69402
