51
id_417_cb.log	Energy: -1010133.2258491
C          2.87460        4.58561       -0.44011
H          3.19239        5.59401       -0.68917
C          2.53725        4.25985        0.87214
H          2.58946        5.01347        1.65297
C          2.12550        2.96238        1.18645
H          1.85423        2.71247        2.20990
C          2.05170        1.97887        0.19836
C          2.39756        2.31202       -1.11663
H          2.34975        1.55690       -1.89751
C          2.80123        3.60683       -1.43497
H          3.06261        3.85306       -2.46036
C          1.62054        0.56538        0.56807
C          2.79947       -0.38076        0.39210
C          3.65477       -0.60317        1.47379
H          3.43787       -0.13864        2.43322
C          4.78529       -1.40947        1.34820
H          5.44370       -1.57700        2.19480
C          5.04984       -2.00043        0.11816
C          4.21362       -1.80369       -0.97690
H          4.43211       -2.27943       -1.92799
C          3.09178       -0.99057       -0.83200
H          2.43390       -0.84300       -1.68336
Cl         6.46372       -3.02099       -0.05697
N          0.43516        0.13476       -0.18933
C         -0.66659        1.08242        0.01562
H         -0.87213        1.20189        1.09634
H         -0.38126        2.06163       -0.37731
C         -1.93212        0.63099       -0.69320
H         -2.71330        1.36886       -0.49140
H         -1.75736        0.61557       -1.78606
N         -2.36679       -0.68588       -0.22790
C         -1.26658       -1.62861       -0.43093
H         -1.04900       -1.74086       -1.51022
H         -1.56629       -2.61036       -0.05074
C         -0.00740       -1.18143        0.28686
H          0.77848       -1.91918        0.10612
H         -0.19317       -1.14917        1.37682
C         -3.53024       -1.15776       -0.97857
H         -3.30273       -1.20073       -2.06052
H         -3.74784       -2.18091       -0.65157
C         -4.78345       -0.32365       -0.81715
H         -5.57446       -0.77970       -1.42788
H         -4.64222        0.70652       -1.17222
O         -5.17808       -0.29876        0.54803
C         -6.43823        0.31132        0.72935
H         -6.52596        0.56016        1.79212
H         -6.50266        1.24639        0.15687
C         -7.63399       -0.58264        0.36629
O         -7.43556       -1.80648        0.15299
O         -8.75490        0.00077        0.34911
H          1.37315        0.57738        1.64561
