23
id_46_cb.log	Energy: -347961.2339318
C         -0.16665       -1.59262        0.39260
H         -0.78536       -2.46823        0.56343
C          1.21125       -1.72900        0.16055
H          1.67514       -2.71216        0.14317
C          2.02596       -0.61801       -0.05066
C          1.51415        0.69514       -0.04432
C          0.15788        0.81482        0.18162
C         -0.65478       -0.29713        0.39497
C         -1.91269        0.55019        0.52695
C         -0.98419        1.80189        0.30887
H         -0.92353        2.48534        1.15976
H         -1.21410        2.37429       -0.59571
C         -2.96360        0.32287       -0.55233
H         -2.49354        0.44526       -1.53498
H         -3.73946        1.09146       -0.47051
N         -3.60290       -0.99405       -0.51111
H         -3.99344       -1.12206        0.42289
H         -2.86591       -1.69664       -0.58523
O          2.33137        1.77268       -0.25412
H          3.23566        1.44096       -0.39631
O          3.37993       -0.70385       -0.27938
H          3.65086       -1.63652       -0.28811
H         -2.38053        0.51709        1.51783
