76
id_464_cb.log	Energy: -909068.1581061
C         -0.69254        3.38259        0.85043
H         -0.11194        4.26820        0.57069
H         -0.02550        2.51182        0.80344
H         -1.01584        3.51218        1.88877
C         -1.88334        3.23586       -0.10296
C         -1.34215        3.17731       -1.54074
H         -2.14851        3.17561       -2.28042
H         -0.73267        2.27986       -1.69880
H         -0.71265        4.05345       -1.73539
C         -2.78420        4.47315        0.03941
H         -2.21644        5.38331       -0.18577
H         -3.17448        4.55535        1.05975
H         -3.63468        4.42298       -0.64895
C         -2.71258        1.98373        0.19787
C         -3.71997        1.57941       -0.68849
H         -3.91811        2.16401       -1.58311
C         -4.47526        0.43061       -0.46249
H         -5.23169        0.13208       -1.18255
C         -4.25152       -0.35702        0.66759
C         -3.28494        0.06428        1.58200
H         -3.10222       -0.52514        2.47860
C         -2.52919        1.21188        1.35191
H         -1.77468        1.48888        2.08120
C         -4.94370       -1.69216        0.87482
C         -3.98052       -2.84805        0.58612
H         -3.10836       -2.71357        1.23245
H         -4.46183       -3.78568        0.88678
C         -3.53844       -2.92756       -0.88167
H         -3.62813       -1.94553       -1.35854
H         -4.21117       -3.58817       -1.43840
C         -2.11631       -3.45793       -1.06559
H         -1.89857       -3.51512       -2.14921
H         -2.05941       -4.48274       -0.67765
N         -1.08350       -2.67682       -0.38076
C         -1.04540       -1.29802       -0.86756
H         -0.83378       -1.27593       -1.95618
H         -2.02036       -0.82907       -0.71584
C          0.00850       -0.48574       -0.12757
H         -0.02669        0.54834       -0.48489
H         -0.25905       -0.46872        0.93771
C          1.40272       -1.08955       -0.29966
H          1.66482       -1.05275       -1.36571
C          1.34705       -2.56417        0.11380
H          1.18390       -2.63023        1.19555
H          2.29562       -3.06526       -0.10828
C          0.22247       -3.29702       -0.61301
H          0.17705       -4.33723       -0.27289
H          0.44631       -3.32017       -1.69807
C          2.48263       -0.30319        0.49074
C          3.85823       -0.93551        0.27019
C          4.58621       -1.48733        1.32510
H          4.18223       -1.46284        2.33029
C          5.83213       -2.07324        1.09497
H          6.38499       -2.49732        1.92792
C          6.36356       -2.11760       -0.18995
H          7.33221       -2.57443       -0.36761
C          5.64056       -1.56802       -1.24906
H          6.04427       -1.59393       -2.25669
C          4.40041       -0.98134       -1.01973
H          3.85232       -0.54977       -1.85356
C          2.55090        1.18003        0.09087
C          2.23486        1.63342       -1.19452
H          1.90054        0.93621       -1.95752
C          2.32580        2.98748       -1.51446
H          2.06470        3.31805       -2.51549
C          2.74000        3.91152       -0.55751
H          2.80645        4.96601       -0.80728
C          3.06605        3.46897        0.72296
H          3.39386        4.17720        1.47803
C          2.97337        2.11594        1.04175
H          3.22864        1.77936        2.04153
O          2.20472       -0.39854        1.88534
H          1.40946        0.13099        2.06224
O         -6.07232       -1.86044        0.02689
H         -6.69174       -1.13594        0.21091
H         -5.25561       -1.76123        1.92686
