12
id_401_cb.log	Energy: -683618.1932497
C          0.72234        1.19915       -0.00000
H          1.25134        2.14857        0.00000
C         -0.67051        1.20872       -0.00000
H         -1.21250        2.15028        0.00000
C         -1.36011       -0.00000       -0.00000
C         -0.67051       -1.20873       -0.00000
H         -1.21249       -2.15028        0.00000
C          0.72234       -1.19915       -0.00000
H          1.25135       -2.14856       -0.00000
C          1.46942        0.00001       -0.00000
S          3.22754       -0.00000        0.00000
Cl        -3.11742       -0.00000        0.00000
