42
id_457_ca.log	Energy: -938508.5937529
C          2.41280       -3.23473        0.53740
H          3.46311       -3.50038        0.67607
H          2.05782       -3.72537       -0.37635
H          1.84213       -3.65421        1.37363
C          2.22892       -1.75407        0.45188
C          3.17699       -0.78839        0.52558
C          2.53528        0.52600        0.37524
C          3.11722        1.78853        0.33453
H          4.18437        1.95540        0.45809
C          2.26074        2.85936        0.11202
C          0.89502        2.72420       -0.08005
H          0.28828        3.60389       -0.26800
C          0.32744        1.44542       -0.02813
H         -0.73983        1.34325       -0.19049
C          1.14212        0.34461        0.21955
C          0.89683       -1.11875        0.28435
C         -0.23824       -1.83987        0.18393
H         -0.13572       -2.92438        0.14035
C         -1.62615       -1.34975        0.11849
C         -2.51057       -1.92082       -0.81020
H         -2.15440       -2.69830       -1.48075
C         -3.83346       -1.49869       -0.88346
H         -4.50921       -1.94293       -1.61075
C         -4.27396       -0.50710       -0.00779
C         -3.43213        0.04275        0.95234
H         -3.80874        0.78726        1.64764
C         -2.10740       -0.38338        1.01130
H         -1.44377        0.02784        1.76713
S         -5.98736        0.03966       -0.10620
O         -6.22782        0.93186        1.11663
C         -5.78154        1.17595       -1.49456
H         -6.74937        1.65082       -1.67167
H         -5.47749        0.60475       -2.37579
H         -5.02556        1.91897       -1.22779
F          2.79521        4.10569        0.06787
C          4.65493       -0.93554        0.70321
H          4.92705       -1.98086        0.89092
H          5.01579       -0.34734        1.55310
C          5.46413       -0.50518       -0.49910
O          6.57992       -0.02351       -0.43437
O          4.84969       -0.74050       -1.66470
H          5.43825       -0.47028       -2.39661
