18
id_474_cb.log	Energy: -322579.3522930
C         -2.77591        1.29356        0.00000
H         -3.22259        2.28148        0.00001
C         -1.39985        1.12867        0.00001
H         -0.74288        1.99324        0.00001
C         -0.87518       -0.16994        0.00000
C         -1.78480       -1.23298       -0.00000
H         -1.40751       -2.25366       -0.00000
N         -3.11201       -1.09076       -0.00001
C         -3.58659        0.15995       -0.00000
H         -4.66810        0.26437       -0.00001
C          0.55653       -0.47271        0.00001
H          0.81773       -1.53016        0.00001
C          1.55256        0.42269       -0.00000
H          1.39182        1.49562       -0.00001
C          2.95080       -0.04188        0.00000
O          3.31502       -1.20421        0.00000
O          3.81840        0.98457       -0.00001
H          4.72295        0.61746       -0.00001
