55
id_491_cb.log	Energy: -1017116.8731698
C          4.64658       -0.94353        2.66821
H          4.90772       -0.77164        3.71721
H          5.39424       -1.62186        2.24119
H          3.67748       -1.45227        2.64458
C          4.60475        0.37117        1.89590
H          5.56771        0.88652        1.98703
H          3.84577        1.03993        2.32619
C          4.30982        0.19480        0.40563
H          5.03056       -0.51080       -0.02338
C          4.39450        1.52615       -0.34848
H          3.63797        2.20697        0.06648
H          5.37469        1.97135       -0.13770
C          4.20539        1.38798       -1.85610
H          4.97498        0.73845       -2.28863
H          4.27289        2.36443       -2.34670
H          3.22676        0.96104       -2.10034
N          2.98575       -0.40152        0.24528
H          2.21941        0.00595        0.77983
C          2.65549       -1.30938       -0.68578
O          3.49414       -1.84429       -1.44405
C          1.23697       -1.69883       -0.75045
C          0.72533       -2.79452       -1.47566
H          1.26559       -3.48647       -2.10870
N         -0.57633       -2.94079       -1.29493
N         -0.93126       -1.93487       -0.45151
C          0.12900       -1.14404       -0.09792
N          0.02899       -0.07903        0.77678
S         -0.14660        1.36491        0.12126
O          0.72132        1.57864       -1.07212
O          0.04574        2.35904        1.20673
C         -1.83232        1.55960       -0.49097
H         -1.95927        0.72255       -1.18596
C         -2.87753        1.52270        0.64818
H         -3.65896        0.80353        0.37954
H         -2.45178        1.19785        1.60242
C         -3.45851        2.94300        0.69437
H         -4.46799        2.96707        1.11515
H         -2.82002        3.59224        1.30642
C         -3.39561        3.39345       -0.76694
H         -3.52858        4.47130       -0.89873
H         -4.17291        2.88027       -1.34708
C         -2.00664        2.91721       -1.21018
H         -1.25339        3.63244       -0.85886
H         -1.89544        2.81896       -2.29234
C         -2.27849       -1.84959        0.00849
C         -3.31565       -1.81883       -0.92275
H         -3.08689       -1.82312       -1.98439
C         -4.63430       -1.77993       -0.47298
H         -5.44623       -1.75650       -1.19373
C         -4.90949       -1.76354        0.89563
H         -5.93801       -1.72934        1.24240
C         -3.86224       -1.79350        1.81732
H         -4.07202       -1.78713        2.88278
C         -2.54058       -1.84252        1.37747
H         -1.71720       -1.88090        2.08364
