32
id_452_cb.log	Energy: -739497.8542541
C          5.05997        2.69123        0.62218
H          4.71196        3.68747        0.33124
H          6.14240        2.64979        0.45659
H          4.87861        2.57094        1.69612
C          4.34276        1.60461       -0.17676
H          4.51293        1.74939       -1.25029
H          3.26086        1.67479       -0.00963
C          4.82731        0.21898        0.22590
H          4.67880        0.04965        1.29802
H          5.89778        0.10834        0.01900
S          4.02983       -1.14766       -0.69372
C          2.33350       -0.94144       -0.17286
C          1.97416       -1.18879        1.16715
H          2.74066       -1.50436        1.87012
C          0.66151       -1.03714        1.60596
H          0.39629       -1.22498        2.64289
C         -0.31167       -0.65030        0.67904
C          0.06391       -0.42040       -0.66288
C          1.37532       -0.54824       -1.11129
H          1.64772       -0.34514       -2.14273
N         -1.10747       -0.06434       -1.28952
H         -1.23384        0.17734       -2.26475
C         -2.12386       -0.08587       -0.35257
N         -1.66773       -0.43858        0.84929
N         -3.35962        0.24520       -0.80052
C         -4.40445        0.25119        0.02644
O         -4.50175       -0.01184        1.23730
O         -5.54011        0.62733       -0.66171
C         -6.74262        0.69112        0.10062
H         -6.65319        1.41775        0.91241
H         -6.99779       -0.28874        0.51269
H         -7.51698        1.01067       -0.59726
