39
id_442_ca.log	Energy: -1113969.8532055
C          3.18416        4.41623       -0.96374
H          3.88127        4.02220       -1.70875
H          3.66256        5.25826       -0.45806
H          2.30036        4.78750       -1.48794
C          2.80319        3.34310        0.04675
H          2.10485        3.74829        0.79041
H          3.67699        2.98494        0.59914
C          2.10743        2.16853       -0.60497
O          1.49443        2.25479       -1.67019
N          2.18100        0.99371        0.07027
H          2.58789        0.97760        0.99943
C          1.44309       -0.17029       -0.38008
C          1.99612       -1.41602        0.27107
C          1.40477       -2.23821        1.18969
H          0.40129       -2.07974        1.57019
C          2.24830       -3.31798        1.59493
H          1.95758       -4.07527        2.31296
C          3.46336       -3.29020        0.98030
H          4.29123       -3.97723        1.09802
S          3.60358       -1.95717       -0.10414
C         -0.06175       -0.05310       -0.15981
C         -0.61397        0.98446        0.62494
H          0.05397        1.69329        1.10340
C         -1.96784        1.11877        0.78526
C         -2.86949        0.21171        0.17075
C         -4.28136        0.26561        0.26722
H         -4.74648        1.05861        0.84303
C         -5.06333       -0.67549       -0.35989
H         -6.14308       -0.64856       -0.29511
C         -4.44987       -1.69626       -1.09335
H         -4.99801       -2.47720       -1.60501
N         -3.12939       -1.74131       -1.18475
C         -2.29981       -0.83083       -0.59208
C         -0.90255       -0.96867       -0.75921
O         -0.51162       -2.00484       -1.54117
H          0.40396       -2.27190       -1.33991
Cl        -2.59177        2.42180        1.75382
H          1.59135       -0.23697       -1.46629
H         -2.68958       -2.49423       -1.71871
