19
id_400_ca.log	Energy: -624197.6328873
C         -0.74317        1.66189       -0.24914
H         -0.50025        2.68200       -0.53024
C         -2.04630        1.19245       -0.34509
H         -2.83701        1.84342       -0.70434
C         -2.32353       -0.12207        0.02542
C         -1.32131       -0.96389        0.48660
H         -1.54769       -1.98677        0.77010
C         -0.01039       -0.49259        0.58266
H          0.75687       -1.16813        0.94581
C          0.27360        0.82205        0.21369
O          1.52324        1.39179        0.27259
C          2.59586        0.60447        0.73375
H          3.43267        1.28777        0.90146
H          2.36828        0.10417        1.68132
C          3.02833       -0.41263       -0.30204
O          2.57753       -0.49251       -1.42472
O          3.99226       -1.20256        0.17604
H          4.27516       -1.83037       -0.51798
Cl        -3.96534       -0.72023       -0.09485
