46
id_426_ca.log	Energy: -693746.5234636
C          6.30656        3.05572        0.52536
H          5.83204        3.46485       -0.37069
H          7.22418        3.59934        0.74256
H          5.62369        3.11699        1.37713
O          6.70489        1.70084        0.30414
C          5.75464        0.80552        0.02673
C          6.21734       -0.52799       -0.16408
H          7.27201       -0.75627       -0.08506
C          5.30389       -1.48940       -0.43609
H          5.55246       -2.53106       -0.59033
N          3.97465       -1.18750       -0.52924
C          3.49548        0.07016       -0.36442
C          4.41029        1.10275       -0.07378
H          4.01962        2.10277        0.06360
N          2.18585        0.30856       -0.50746
H          1.88620        1.25388       -0.28838
C          1.13783       -0.70339       -0.62880
H          1.46196       -1.45106       -1.36549
C         -0.12554       -0.03791       -1.17136
H          0.06710        0.38492       -2.16180
H         -0.41919        0.77989       -0.49928
C         -1.27438       -1.04310       -1.25935
H         -1.03373       -1.83663       -1.97379
H         -2.17826       -0.54488       -1.60346
N         -1.50157       -1.67402        0.04740
C         -0.31166       -2.37620        0.53672
H         -0.55502       -2.86986        1.47582
H         -0.05701       -3.14249       -0.20292
C          0.84966       -1.39925        0.70667
H          0.58270       -0.64253        1.45403
H          1.73327       -1.93582        1.06772
C         -2.33119       -1.13567        0.98099
O         -2.16325       -1.29688        2.19343
C         -3.53868       -0.37137        0.51393
C         -4.37497       -0.85715       -0.49496
H         -4.13108       -1.78106       -1.00996
C         -5.53084       -0.16633       -0.83250
H         -6.19250       -0.53814       -1.60706
C         -5.83902        1.02088       -0.15948
C         -5.01046        1.51138        0.85563
H         -5.26821        2.43095        1.36958
C         -3.86747        0.80177        1.19680
H         -3.22203        1.15670        1.99357
C         -7.02970        1.74443       -0.51258
N         -7.98977        2.32853       -0.79756
H          3.33381       -1.95011       -0.73099
