9
id_4_ca.log	Energy: -159502.3032242
C         -0.67158        0.56810        0.29826
H         -1.16083        1.50349        0.01345
H         -0.62011        0.51946        1.39245
C          0.71756        0.55696       -0.28260
H          1.29866        1.41408        0.06605
H          0.69851        0.52335       -1.37467
F          1.38335       -0.60652        0.14929
O         -1.47454       -0.49048       -0.21091
H         -1.14594       -1.32822        0.15241
