77
id_464_ca.log	Energy: -909363.2623305
C         -0.59138        3.34714        0.89860
H          0.00060        4.23041        0.63575
H          0.05928        2.46724        0.81422
H         -0.89528        3.45083        1.94567
C         -1.80001        3.25020       -0.03845
C         -1.28634        3.23646       -1.48732
H         -2.10590        3.27940       -2.21102
H         -0.69774        2.33488       -1.69288
H         -0.64308        4.10716       -1.65980
C         -2.68071        4.49380        0.16419
H         -2.10328        5.40329       -0.03775
H         -3.05234        4.54420        1.19349
H         -3.54325        4.48058       -0.51073
C         -2.64376        2.00123        0.23370
C         -3.67090        1.64272       -0.64961
H         -3.86873        2.25578       -1.52489
C         -4.45136        0.50737       -0.44204
H         -5.22662        0.24864       -1.15724
C         -4.23371       -0.31311        0.66597
C         -3.23749        0.05463        1.57213
H         -3.05681       -0.56127        2.45122
C         -2.45861        1.19091        1.36078
H         -1.68661        1.42969        2.08533
C         -4.98069       -1.62099        0.85965
C         -4.06953       -2.81640        0.56449
H         -3.22391       -2.75303        1.25913
H         -4.60539       -3.73667        0.81846
C         -3.60995       -2.86808       -0.90199
H         -3.67921       -1.88068       -1.36856
H         -4.28069       -3.51352       -1.47631
C         -2.21240       -3.43521       -1.09987
H         -1.95033       -3.48324       -2.15966
H         -2.12924       -4.43618       -0.66902
N         -1.12890       -2.61952       -0.44849
C         -1.06252       -1.20377       -0.94180
H         -0.84689       -1.26382       -2.01308
H         -2.04074       -0.74544       -0.79343
C          0.00643       -0.44025       -0.18082
H         -0.01086        0.59215       -0.54018
H         -0.27553       -0.41543        0.88034
C          1.38926       -1.07488       -0.33276
H          1.66752       -1.06675       -1.39426
C          1.30188       -2.53573        0.12172
H          1.10924       -2.57569        1.20008
H          2.24157       -3.06463       -0.06460
C          0.20692       -3.28944       -0.61599
H          0.09940       -4.30913       -0.24254
H          0.39034       -3.31949       -1.69391
C          2.46916       -0.29602        0.46587
C          3.82989       -0.97195        0.28593
C          4.51008       -1.54116        1.36285
H          4.08118       -1.49604        2.35698
C          5.74069       -2.17037        1.16751
H          6.25743       -2.60818        2.01632
C          6.30242       -2.24041       -0.10335
H          7.25914       -2.73088       -0.25367
C          5.62646       -1.67304       -1.18393
H          6.05511       -1.71827       -2.18045
C          4.40148       -1.04353       -0.98973
H          3.88906       -0.59723       -1.83863
C          2.58202        1.17474        0.03793
C          2.26570        1.62031       -1.24948
H          1.90719        0.92428       -2.00259
C          2.38696        2.96873       -1.58427
H          2.12325        3.29549       -2.58577
C          2.83436        3.89146       -0.64164
H          2.92361        4.94136       -0.90305
C          3.16720        3.45407        0.63922
H          3.52375        4.16132        1.38195
C          3.04329        2.10795        0.97367
H          3.30308        1.77507        1.97377
O          2.15281       -0.35582        1.85359
H          1.43015        0.27219        2.02038
O         -6.10572       -1.74026        0.00133
H         -6.69974       -0.99418        0.18329
H         -5.30059       -1.68859        1.90882
H         -1.32173       -2.57465        0.56179
