40
id_490_ca.log	Energy: -768299.1473413
C         -1.69058        3.48042       -0.13016
H         -2.74369        3.75401       -0.01746
H         -1.07725        4.24005        0.36190
H         -1.44642        3.47452       -1.19609
C         -1.41371        2.12005        0.50492
C          0.03863        1.68621        0.36789
C          0.82647        1.45831        1.49710
H          0.39847        1.59936        2.48715
C          2.15635        1.05372        1.36441
H          2.75669        0.88124        2.25527
C          2.72840        0.86093        0.10412
C          1.93018        1.08803       -1.02546
H          2.35520        0.94440       -2.01698
C          0.60467        1.49337       -0.89866
H          0.00483        1.66106       -1.79148
C          4.14860        0.37797       -0.05175
H          4.66144        0.98960       -0.80496
H          4.68715        0.50834        0.89645
C          4.24684       -1.10040       -0.47210
H          3.71315       -1.21443       -1.42658
C          5.71045       -1.48173       -0.68615
H          6.18529       -0.83713       -1.43443
H          5.80172       -2.52006       -1.02373
H          6.27234       -1.38214        0.25146
C          3.59740       -2.01991        0.56061
H          2.52849       -1.81092        0.67889
H          3.70451       -3.07030        0.26759
H          4.07677       -1.89176        1.54028
C         -2.28254        1.04432       -0.12543
O         -2.87377        1.16159       -1.18727
N         -2.34546       -0.13352        0.59838
H         -1.72521       -0.25578        1.40122
S         -2.94307       -1.54824       -0.10254
O         -2.14018       -1.88201       -1.28031
O         -4.38377       -1.39316       -0.29796
C         -2.61926       -2.69850        1.20090
H         -3.15618       -2.37400        2.09428
H         -1.54146       -2.74843        1.36874
H         -2.99839       -3.66201        0.85079
H         -1.65967        2.15273        1.57263
