27
id_405_ca.log	Energy: -419783.7940513
C         -2.77681       -0.94028       -1.92333
H         -2.59639       -2.00467       -1.73077
H         -1.82846       -0.49319       -2.24191
H         -3.47950       -0.86352       -2.75924
C         -3.32742       -0.24995       -0.67893
H         -4.31708       -0.65707       -0.43689
H         -3.46910        0.82170       -0.87570
C         -2.43203       -0.41787        0.55899
C         -3.07399        0.23684        1.78601
H         -4.05862       -0.20236        1.97934
H         -3.21091        1.31310        1.62825
H         -2.45514        0.09962        2.67889
C         -1.04140        0.12975        0.31331
C         -0.83937        1.49907        0.03891
H         -1.69418        2.17089        0.01043
C          0.41885        2.01781       -0.19817
H          0.56419        3.07288       -0.40807
C          1.55376        1.19419       -0.17261
C          1.35336       -0.17215        0.09790
C          0.06915       -0.69137        0.33403
H         -0.03425       -1.75271        0.53447
N          2.46290       -1.09048        0.14269
O          3.60447       -0.65339       -0.04278
O          2.25243       -2.27303        0.36314
O          2.74131        1.78488       -0.40972
H          3.45560        1.11815       -0.35265
H         -2.32686       -1.49348        0.75319
