33
id_451_cb.log	Energy: -739773.0771086
C          5.03416        1.20743        1.63030
H          4.87745        1.85940        2.49460
H          6.10680        0.99692        1.55410
H          4.73620        1.75906        0.73336
C          4.23672       -0.08304        1.77438
H          4.48254       -0.56729        2.72722
H          3.16344        0.14012        1.80666
C          4.50459       -1.10407        0.67451
H          3.94083       -2.02376        0.85462
H          5.56781       -1.36528        0.63996
S          4.12616       -0.51989       -1.02272
C          2.41441       -0.05406       -0.81889
C          2.05821        1.30579       -0.91566
H          2.83658        2.03807       -1.10578
C          0.74045        1.72344       -0.77301
H          0.47185        2.77193       -0.85263
C         -0.23145        0.75694       -0.51165
C          0.14360       -0.59823       -0.40944
C          1.45325       -1.03415       -0.56841
H          1.71672       -2.08506       -0.50183
N         -1.03662       -1.26814       -0.15294
H         -1.15939       -2.26561       -0.01806
C         -2.01976       -0.32058       -0.11500
N         -1.59959        0.90167       -0.32167
N         -3.31291       -0.73666        0.12823
H         -3.46807       -1.73161        0.25775
C         -4.42259        0.06822        0.20520
O         -4.44808        1.27483        0.08124
O         -5.49818       -0.69558        0.44288
C         -6.73571        0.02169        0.54336
H         -6.69616        0.72788        1.37457
H         -6.94144        0.55164       -0.38826
H         -7.49496       -0.73645        0.72478
