44
id_471_ca.log	Energy: -931574.6858887
C          0.66255        1.55981        1.06321
H          0.27800        0.71078        1.63658
H         -0.19328        2.09906        0.64501
H          1.19218        2.22612        1.75424
C          1.60656        1.13886       -0.06490
C          2.74617        0.22863        0.50796
N          2.21950       -1.12414        0.53384
C          1.29664       -1.49819       -0.55471
S          0.71943        0.05929       -1.29066
C          0.43566       -2.26318        0.50001
C          1.40287       -1.64481        1.51334
O          1.43306       -1.55898        2.72120
N         -0.91864       -1.83021        0.72110
H         -1.13639       -1.29844        1.56221
C         -1.80828       -1.85915       -0.28288
O         -1.58044       -2.37308       -1.37782
C         -3.15280       -1.19694        0.02443
C         -3.04148        0.30965        0.12052
C         -2.73065        1.07634       -1.00687
H         -2.55470        0.59895       -1.96876
C         -2.63581        2.46215       -0.90021
H         -2.39966        3.05409       -1.77954
C         -2.83264        3.08488        0.33378
H         -2.75507        4.16516        0.41482
C         -3.12207        2.31926        1.46272
H         -3.27257        2.79880        2.42524
C         -3.23072        0.93254        1.35580
H         -3.46890        0.33138        2.22984
N         -4.09574       -1.59980       -1.05843
H         -5.00298       -1.13475       -0.93510
H         -3.73094       -1.35892       -1.98887
H         -4.25168       -2.61595       -1.05066
C          3.99578        0.27310       -0.35014
O          4.83341        1.23470        0.03630
O          4.19904       -0.46256       -1.29347
C          2.11951        2.37934       -0.79419
H          1.27190        2.95375       -1.18159
H          2.66786        3.01854       -0.09428
H          2.77333        2.12829       -1.63498
H          2.99258        0.54238        1.52574
H          1.73863       -2.13227       -1.32198
H          0.50745       -3.34857        0.39304
H         -3.55235       -1.60362        0.95608
H          5.60171        1.26141       -0.56909
