33
id_452_ca.log	Energy: -739791.9276624
C         -5.16184        2.67065        0.33219
H         -4.85515        3.50336        0.97299
H         -6.24330        2.53650        0.44657
H         -4.96537        2.95476       -0.70764
C         -4.41109        1.39201        0.69907
H         -4.59790        1.13044        1.74721
H         -3.33103        1.55322        0.59403
C         -4.83903        0.23396       -0.19136
H         -4.67726        0.47049       -1.24832
H         -5.90540        0.01799       -0.06153
S         -4.00026       -1.34655        0.19107
C         -2.30775       -0.91138       -0.17609
C         -1.94126       -0.53833       -1.48359
H         -2.69951       -0.50808       -2.26089
C         -0.62786       -0.20891       -1.80644
H         -0.34769        0.08271       -2.81321
C          0.31366       -0.28551       -0.78627
C         -0.04636       -0.66721        0.51159
C         -1.35948       -0.97687        0.84678
H         -1.63402       -1.25034        1.86044
N          1.11780       -0.63345        1.26431
H          1.20806       -0.85542        2.25012
C          2.16701       -0.25354        0.48939
N          1.68035       -0.04127       -0.76103
H          2.27853        0.25287       -1.52692
N          3.39551       -0.14368        0.97430
C          4.36516        0.23973        0.11279
O          4.26601        0.50574       -1.09227
O          5.55995        0.31216        0.74226
C          6.67220        0.70950       -0.06566
H          6.51161        1.71081       -0.47136
H          6.82747       -0.00243       -0.87925
H          7.53181        0.70884        0.60327
