50
id_477_ca.log	Energy: -1159677.8306344
C         -0.37984        3.79233       -2.10601
H         -1.06553        3.65422       -2.94911
H          0.24359        2.89741       -2.01973
H          0.27429        4.63881       -2.33408
C         -1.15262        4.05765       -0.81859
H         -1.72571        4.98603       -0.90263
H         -0.46719        4.16469        0.03083
C         -2.13726        2.93047       -0.50403
C         -2.89089        3.24714        0.77976
O         -2.66858        2.73209        1.85502
O         -3.81438        4.19033        0.58253
H         -4.25184        4.40363        1.43098
O         -1.37797        1.74769       -0.34133
C         -2.00359        0.54546       -0.24491
C         -3.38872        0.38004       -0.28135
H         -4.05926        1.22725       -0.37562
C         -3.93496       -0.89992       -0.20998
H         -5.01282       -1.02106       -0.23732
C         -3.09847       -2.00421       -0.10904
C         -1.71216       -1.83865       -0.07489
H         -1.05978       -2.70543        0.00479
C         -1.14713       -0.56974       -0.13054
C          0.33452       -0.41395       -0.12359
C          1.06186       -1.05576       -1.13552
H          0.52812       -1.61592       -1.89820
C          2.44876       -0.97754       -1.18915
H          3.00677       -1.47035       -1.97892
C          3.09593       -0.23640       -0.20547
C          2.39980        0.39479        0.82005
H          2.93612        0.95007        1.58618
C          1.00545        0.31768        0.87746
C          0.28943        1.00150        2.01156
H          0.12263        2.05922        1.78090
H          0.89169        0.94846        2.92286
H         -0.68468        0.54715        2.21117
S          4.87046       -0.15008       -0.21082
O          5.27650        1.14484        0.37090
O          5.34635       -0.46106       -1.57330
C          5.39839       -1.46000        0.89202
H          4.92039       -1.24669        1.85297
H          4.97921       -2.38109        0.47592
C          6.91651       -1.49814        0.98928
H          7.19589       -2.31106        1.66427
H          7.31254       -0.56400        1.39542
H          7.37308       -1.68997        0.01491
C         -3.64953       -3.39237       -0.03685
F         -4.99261       -3.42479       -0.05979
F         -3.26525       -4.03820        1.08670
F         -3.22642       -4.16399       -1.06326
H         -2.85468        2.81936       -1.32698
