62
id_40_ca.log	Energy: -885586.8889166
C          2.59008        1.92290        1.21600
H          2.71264        2.16582        0.15810
H          1.70172        2.44871        1.57683
H          3.45810        2.29448        1.77254
C          2.39960        0.43410        1.47063
H          1.56046        0.05332        0.88453
C          2.15976        0.16512        2.94842
H          1.35562        0.82593        3.28134
H          3.05444        0.39273        3.53817
H          1.84908       -0.86306        3.14538
N          3.63578       -0.31463        0.97691
C          3.77442       -0.33653       -0.52597
H          4.79024       -0.68248       -0.72656
H          3.66053        0.67936       -0.90325
C          2.74504       -1.26032       -1.15034
H          2.93767       -1.28032       -2.22711
H          1.74171       -0.83771       -1.00819
N          2.87315       -2.62175       -0.62003
C          2.72649       -2.61966        0.83548
H          2.87587       -3.63672        1.20982
H          1.72210       -2.29640        1.15829
C          3.77858       -1.73148        1.46749
H          3.71596       -1.73218        2.55364
H          4.78089       -2.04710        1.17226
C          1.95505       -3.57099       -1.25874
H          2.29279       -4.59039       -1.04892
H          2.01764       -3.41685       -2.34111
C          0.53195       -3.47855       -0.80672
C         -0.38913       -4.33378       -0.29984
H         -0.29503       -5.39609       -0.13022
N         -1.55307       -3.63781        0.01066
C         -1.28613       -2.40654       -0.30331
O         -0.04844       -2.24199       -0.82234
C         -2.06454       -1.18575       -0.12696
C         -1.40450        0.02821       -0.14944
H         -0.32839        0.03206       -0.26927
C         -2.07068        1.26942        0.01173
C         -3.44323        1.29258        0.20981
H         -3.98714        2.22565        0.31603
C         -4.11195        0.05774        0.24855
C         -3.46100       -1.18405        0.08519
C         -4.50451       -2.14716        0.17613
H         -4.44220       -3.22299        0.10670
N         -5.66953       -1.56081        0.37531
N         -5.42863       -0.23633        0.41631
H         -6.19400        0.40998        0.56058
C         -1.26584        2.51646       -0.00221
C         -1.58496        3.57159        0.84686
H         -2.42818        3.46640        1.52342
C         -0.82788        4.75803        0.88319
H         -1.11461        5.54662        1.57156
C          0.27746        4.92843        0.06871
H          0.87171        5.83642        0.09162
C          0.60482        3.87470       -0.79127
C         -0.13716        2.66531       -0.85062
C          0.50324        1.84685       -1.84729
H          0.20667        0.86727       -2.19382
C          1.56964        2.56230       -2.32544
H          2.29352        2.30254       -3.08508
N          1.63091        3.77984       -1.69763
H          2.32724        4.49386       -1.86705
H          4.44247        0.20411        1.34779
