62
id_443_ca.log	Energy: -1045015.1274580
C          8.07220       -1.78520        0.61063
H          8.95870       -1.56316        1.21197
H          8.30146       -1.53777       -0.43149
H          7.88941       -2.86381        0.66470
C          6.85613       -1.00471        1.09903
H          7.07354        0.07091        1.06597
H          6.65286       -1.24975        2.14927
C          5.61090       -1.30492        0.26760
H          5.41309       -2.38384        0.28463
H          5.78774       -1.02960       -0.78199
C          4.36548       -0.57389        0.76421
C          3.10473       -0.86257       -0.09112
H          3.28710       -1.60201       -0.87289
H          2.27834       -1.21507        0.53278
C          2.73336        0.48449       -0.72349
N          3.18758        1.48040        0.30326
C          4.54116        0.95155        0.70241
H          4.83240        1.42855        1.63788
H          5.22530        1.25166       -0.09710
C          3.21866        2.89449       -0.15725
H          3.83772        2.94061       -1.05350
H          2.20252        3.22388       -0.37528
H          3.64865        3.50080        0.63922
C          1.28497        0.53139       -1.17647
O          1.02150       -0.07117       -2.22491
N          0.36577        1.14288       -0.42373
H          0.61228        1.61212        0.44191
C         -1.03455        1.29074       -0.82451
C         -1.85961        0.17965       -0.15828
C         -1.38282       -1.22216       -0.57410
C         -2.31011       -2.25313        0.05375
C         -3.75210       -1.98043       -0.34994
C         -4.14507       -0.53618       -0.01353
O         -3.21080        0.36476       -0.56795
S         -4.37237       -0.34265        1.80264
C         -4.60370        1.45654        1.82336
H         -3.66371        1.97652        1.62759
H         -4.96085        1.72435        2.81999
H         -5.35569        1.75353        1.08689
O         -4.54983       -2.93802        0.31867
H         -5.44029       -2.91599       -0.06746
O         -1.91561       -3.54553       -0.36684
H         -2.59864       -4.15600       -0.04248
O         -1.42596       -1.37884       -1.98134
H         -0.61008       -0.96474       -2.32643
C         -1.43249        2.72832       -0.46666
C         -2.76077        3.22014       -1.01827
H         -3.60621        2.70286       -0.56566
H         -2.85107        4.29190       -0.81398
H         -2.79793        3.07727       -2.10267
O         -1.37443        2.80818        0.95626
H         -1.50047        3.73803        1.20469
H          4.17012       -0.86575        1.80031
H          3.34749        0.68438       -1.60586
H         -1.08813        1.17705       -1.91086
H         -1.78190        0.27813        0.93347
H         -0.36662       -1.39678       -0.19636
H         -2.22884       -2.16515        1.14712
H         -3.83601       -2.09657       -1.43782
H         -5.09646       -0.27915       -0.48733
H         -0.63906        3.35926       -0.89238
H          2.59058        1.41303        1.13873
