14
id_415_cb.log	Energy: -239851.0708160
C          2.05848        1.10660        0.37860
H          1.21690        1.37808        1.02754
H          2.98175        1.30491        0.93188
H          2.03681        1.76969       -0.49374
C          1.97565       -0.35566       -0.05031
H          2.84072       -0.61407       -0.66992
H          2.00511       -1.00906        0.82881
C          0.70516       -0.64887       -0.85370
H          0.66351       -0.02811       -1.75329
H          0.68413       -1.69969       -1.16515
C         -0.53102       -0.41587       -0.01836
O         -0.70510       -0.91555        1.08756
O         -1.39683        0.38390       -0.62140
O         -2.60789        0.62928        0.10340
