48
id_413_cb.log	Energy: -975590.8009770
C          6.42955       -0.79843       -1.34973
H          7.29527       -1.39972       -1.62359
H          6.73186        0.02397       -0.69847
H          5.94063       -0.40976       -2.24516
O          5.55810       -1.69785       -0.65250
C          4.39298       -1.22372       -0.19316
C          3.55187       -2.12138        0.46014
H          3.80349       -3.16678        0.58288
C          2.37341       -1.57399        0.95099
N          2.05558       -0.28247        0.80976
C          2.91702        0.43360        0.10976
N          4.08794        0.06180       -0.38821
O          2.62691        1.74104       -0.12718
C          1.31962        2.20159        0.00558
C          1.15695        3.35993        0.75411
H          2.02176        3.79985        1.24037
C         -0.10725        3.93793        0.85455
H         -0.23991        4.85060        1.42652
C         -1.19926        3.34067        0.23234
H         -2.19771        3.76060        0.30199
C         -1.00344        2.16790       -0.48546
C          0.24975        1.57504       -0.64591
C          0.43535        0.33012       -1.50745
O         -0.34174       -0.63512       -1.30835
O          1.36332        0.37780       -2.35767
O         -2.09911        1.60365       -1.14338
C         -2.74057        0.58157       -0.51552
N         -3.53956       -0.10984       -1.31631
C         -4.14266       -1.15007       -0.73624
C         -3.95970       -1.49802        0.60048
H         -4.44618       -2.35464        1.04848
C         -3.13819       -0.64141        1.32225
N         -2.53449        0.41956        0.77979
O         -2.94737       -0.90081        2.62392
C         -2.24328        0.07297        3.40661
H         -1.26832        0.29795        2.97200
H         -2.12762       -0.38122        4.38981
H         -2.83389        0.98976        3.48026
O         -4.96934       -1.91640       -1.46054
C         -5.16490       -1.58677       -2.84149
H         -4.22020       -1.64321       -3.38578
H         -5.59682       -0.58891       -2.93978
H         -5.86071       -2.33668       -3.21507
O          1.52556       -2.38709        1.59499
C          0.32255       -1.81684        2.13039
H         -0.25714       -1.33454        1.33889
H          0.56932       -1.09861        2.91523
H         -0.22961       -2.65796        2.54841
