57
id_422_ca.log	Energy: -736898.3701368
C         -3.22634       -3.57271       -0.92789
H         -3.78059       -4.51372       -0.86752
H         -2.96658       -3.39928       -1.97767
H         -2.29397       -3.69328       -0.36786
C         -4.05412       -2.41578       -0.37718
H         -4.33343       -2.60939        0.66514
H         -4.98672       -2.31581       -0.94332
C         -3.33094       -1.08384       -0.44433
H         -3.98746       -0.26588       -0.12425
H         -3.00052       -0.87593       -1.46961
O         -2.20195       -1.15465        0.43452
C         -1.18402       -0.20197        0.20876
C         -1.76531        1.20562        0.12646
C         -2.40569        1.70403        1.26721
H         -2.41396        1.10921        2.17707
C         -3.03036        2.94523        1.24067
H         -3.52097        3.32146        2.13287
C         -3.02774        3.70321        0.06862
H         -3.51345        4.67371        0.04668
C         -2.40690        3.20623       -1.07248
H         -2.40954        3.78425       -1.99117
C         -1.78125        1.95881       -1.04646
H         -1.31220        1.58421       -1.95134
C         -0.15718       -0.37843        1.33654
C          0.17302       -1.67741        1.73471
H         -0.34932       -2.52298        1.29688
C          1.17223       -1.88960        2.68228
H          1.41851       -2.90257        2.98499
C          1.85553       -0.80730        3.23422
H          2.63504       -0.97196        3.97151
C          1.53591        0.48811        2.83093
H          2.06426        1.33732        3.25369
C          0.53920        0.70316        1.87969
H          0.30916        1.71537        1.56235
C         -0.39044       -0.62013       -1.04907
O         -0.60535       -1.62732       -1.68475
O          0.63252        0.20424       -1.27199
C          1.65619       -0.22987       -2.20236
H          1.17425       -0.55096       -3.12760
C          2.53913        0.98664       -2.43027
H          1.94200        1.82704       -2.79375
H          3.27901        0.74004       -3.19889
C          3.24040        1.41214       -1.14879
H          3.93617        2.23327       -1.32455
H          2.52838        1.70254       -0.37068
N          4.03603        0.27515       -0.57337
C          3.15813       -0.91378       -0.30404
H          3.79614       -1.69745        0.10707
H          2.44517       -0.59086        0.45988
C          2.46101       -1.36540       -1.57679
H          3.19967       -1.70766       -2.30985
H          1.81624       -2.21407       -1.33468
C          4.75809        0.69664        0.65789
H          5.40519        1.53802        0.41121
H          5.34610       -0.14613        1.02033
H          4.01322        0.98954        1.39952
H          4.73480       -0.00381       -1.27507
