16
id_409_cb.log	Energy: -298367.3026836
C          2.93784       -0.23237       -0.07270
H          4.01522       -0.36190       -0.11951
C          2.11282       -1.32532        0.19437
H          2.54619       -2.30651        0.36487
C          0.72948       -1.16181        0.25876
H          0.10235       -2.01738        0.49512
C          0.15989        0.10050        0.05280
C          0.99314        1.19560       -0.20150
H          0.55078        2.17638       -0.35018
C          2.37448        1.02949       -0.26979
H          3.01116        1.88511       -0.47552
C         -1.31690        0.34299        0.12245
O         -1.77345        1.44916        0.52748
N         -2.09802       -0.64750       -0.27689
H         -1.69192       -1.50268       -0.64695
O         -3.45056       -0.57853       -0.25698
