28
id_49_ca.log	Energy: -680514.7303428
C          4.08249        1.22106       -0.59703
H          4.88117        1.81926       -1.02293
C          4.03517        1.04281        0.79707
H          4.79779        1.50503        1.41503
C          3.03665        0.28864        1.40745
H          2.98775        0.14136        2.47999
C          2.10888       -0.26923        0.54393
C          2.12963       -0.10644       -0.83995
C          3.13379        0.65307       -1.43935
H          3.16516        0.79182       -2.51456
N          1.03073       -0.77801       -1.38865
C          0.44657       -1.30034       -0.36572
O          1.02500       -1.05798        0.84691
S         -0.97157       -2.32857       -0.39039
C         -1.93447       -1.48748        0.93076
H         -2.82707       -2.10321        1.07014
H         -1.35648       -1.48632        1.85521
C         -2.29335       -0.09022        0.53963
C         -1.51752        1.01737        0.84534
H         -0.61653        0.88419        1.43432
C         -1.91186        2.27660        0.39925
H         -1.30774        3.14497        0.63858
C         -3.07813        2.42211       -0.34833
H         -3.40934        3.38836       -0.70636
C         -3.82737        1.29812       -0.63099
H         -4.74954        1.30676       -1.19696
N         -3.41502        0.09901       -0.18651
H         -3.99286       -0.71462       -0.40774
