42
id_41_ca.log	Energy: -1019306.8250231
C         -0.89575        3.54633       -1.63968
H         -0.44824        4.34822       -1.04292
H         -1.96086        3.76352       -1.76113
H         -0.42625        3.54532       -2.62738
C         -0.72119        2.19688       -0.95880
C         -1.45361        2.12286        0.38188
H         -1.33643        1.12248        0.81744
H         -2.51851        2.31283        0.21622
O         -1.00567        3.11288        1.30263
H         -0.11592        2.86855        1.60557
N          0.71137        1.94422       -0.77233
H          1.28241        2.75716       -0.56807
C          1.23665        0.72764       -0.55654
C          2.60465        0.54783       -0.17756
C          3.56617        1.57998        0.05263
H          3.28565        2.62370       -0.05890
C          4.84193        1.28563        0.41394
H          5.58183        2.05740        0.59139
C          5.26949       -0.08689        0.58085
O          6.41513       -0.43790        0.90891
N          4.29919       -1.04047        0.35025
H          4.57202       -2.01580        0.46323
C          3.00576       -0.78336       -0.01481
N          2.20420       -1.84766       -0.18747
C          0.96127       -1.53940       -0.54433
N          0.43466       -0.33621       -0.73662
S         -0.07019       -2.95519       -0.79798
C         -1.66739       -2.18250       -1.16057
H         -1.53598       -1.48104       -1.98702
H         -2.28863       -3.00635       -1.53015
C         -2.35489       -1.50126        0.00093
C         -2.01067       -1.65088        1.34732
H         -1.17245       -2.28792        1.61286
C         -2.71840       -0.99057        2.35150
H         -2.42872       -1.12218        3.38897
C         -3.79303       -0.15766        2.04024
H         -4.35677        0.37250        2.80104
C         -4.13242       -0.00847        0.70842
C         -3.42684       -0.66463       -0.28893
F         -3.80410       -0.47008       -1.56948
F         -5.14927        0.79605        0.34225
H         -1.12183        1.40280       -1.59645
