34
id_478_cb.log	Energy: -721763.0244376
C          3.10775       -0.28907        1.92144
H          3.12154        0.63079        1.32778
H          4.07851       -0.38414        2.41582
H          2.34203       -0.17981        2.69743
C          2.82145       -1.50222        1.04303
H          2.87388       -2.42251        1.63536
H          3.57307       -1.58601        0.24847
C          1.44168       -1.44611        0.40334
C          1.16094       -2.63192       -0.50803
H          1.91641       -2.63996       -1.30263
H          1.29583       -3.55156        0.07506
C         -0.22847       -2.62099       -1.13140
H         -0.28236       -3.38505       -1.92347
H         -0.40262       -1.65536       -1.62455
N         -1.27403       -2.80667       -0.12584
H         -1.17589       -3.75088        0.24618
C         -2.59699       -2.68546       -0.73021
H         -2.74202       -1.65409       -1.07193
H         -3.36793       -2.90816        0.01170
H         -2.74476       -3.34931       -1.59631
O          1.40829       -0.23054       -0.39134
C          0.42987        0.67753       -0.21301
C         -0.86214        0.36717        0.21732
H         -1.13865       -0.65956        0.44697
C         -1.79248        1.39326        0.31100
C         -1.50077        2.71863       -0.00327
H         -2.25664        3.49007        0.08190
C         -0.21580        3.02005       -0.42814
H          0.05422        4.04028       -0.67813
C          0.74815        2.01235       -0.52853
C          2.08498        2.32015       -0.93810
N          3.16959        2.57468       -1.26168
Cl        -3.40892        0.98826        0.83371
H          0.68269       -1.36713        1.18799
