41
id_472_cb.log	Energy: -660121.4347796
C          6.48563       -1.01899        0.33138
H          5.96954       -1.38128        1.22404
H          7.55533       -0.95662        0.55071
H          6.33977       -1.73793       -0.47948
C          5.96948        0.34635       -0.07217
H          6.47194        0.71196       -0.96864
H          6.09040        1.07909        0.72771
O          4.57965        0.28664       -0.44666
C          3.69352        0.25500        0.56914
O          4.02724        0.35335        1.74681
N          2.41673        0.08146        0.14483
C          2.03174        0.26269       -1.25860
H          1.80397        1.32060       -1.43818
H          2.86971       -0.01749       -1.89336
C          0.82071       -0.59590       -1.60258
H          1.09693       -1.65538       -1.53990
H          0.51381       -0.38408       -2.63121
C         -0.35684       -0.34274       -0.66190
C          0.13178       -0.55693        0.78273
H         -0.67700       -0.32546        1.48458
H          0.39371       -1.61532        0.90215
C          1.34344        0.30277        1.11702
H          1.72355        0.05118        2.10611
H          1.06650        1.36488        1.11886
N         -1.41930       -1.29863       -1.00433
H         -1.10330       -2.26478       -0.96795
C         -2.63363       -1.09755       -0.37761
C         -3.50466       -2.15525       -0.08298
H         -3.20221       -3.17073       -0.31903
C         -4.72946       -1.89591        0.51349
H         -5.39556       -2.72011        0.74784
C         -5.11429       -0.59281        0.83300
H         -6.05877       -0.36474        1.31249
C         -4.24269        0.43234        0.51882
C         -3.00364        0.23318       -0.08859
C         -2.05097        1.28149       -0.52448
N         -0.82956        1.02247       -0.84053
N         -2.53486        2.55242       -0.70989
H         -1.81613        3.26056       -0.80237
H         -3.33400        2.83278       -0.15991
F         -4.62613        1.68917        0.83485
