66
id_425_ca.log	Energy: -893695.7078223
C          0.80638       -0.39601        2.58669
H         -0.08274       -0.45315        3.22568
H          0.54795        0.19738        1.70414
H          1.58547        0.14567        3.13275
C          1.28100       -1.78894        2.18887
H          1.59713       -2.34823        3.07705
H          2.15527       -1.72011        1.52635
C          0.19173       -2.62027        1.48858
C          0.66782       -4.04733        1.21733
H          1.57889       -4.04272        0.61076
H         -0.09499       -4.63120        0.69225
H          0.88916       -4.54484        2.16624
C         -0.19062       -1.95520        0.18482
O          0.47809       -2.02404       -0.83382
O         -1.33567       -1.26876        0.26542
C         -1.89004       -0.68141       -0.94398
C         -2.92924       -1.64503       -1.49698
H         -3.37808       -1.18587       -2.38645
H         -2.45134       -2.58209       -1.80208
C         -4.02706       -1.91834       -0.47848
C         -4.48922       -0.65623        0.19582
H         -5.42673       -0.72093        0.75040
C         -3.81113        0.50351        0.17074
C         -2.50449        0.66883       -0.58261
C         -1.55268        1.61107        0.18249
C         -2.21412        2.99081        0.38211
C         -3.60519        2.83404        0.94002
H         -4.04343        3.70558        1.42475
C         -4.31532        1.69854        0.85616
H         -5.31074        1.63629        1.29360
C         -2.25879        3.85908       -0.88566
H         -2.79236        3.35227       -1.69726
H         -1.25357        4.11067       -1.23892
H         -2.78437        4.79761       -0.67856
C         -0.17734        1.69166       -0.48491
H          0.24111        0.68026       -0.53379
H         -0.28545        2.02539       -1.52705
C          0.82196        2.59464        0.24149
H          0.80763        2.39639        1.32286
H          0.54849        3.64940        0.10632
C          2.24562        2.40741       -0.27818
C          2.87099        1.07848        0.12968
H          2.19362        0.26540       -0.15835
H          2.97802        1.04317        1.22340
C          4.23321        0.82998       -0.51356
C          4.72874       -0.59070       -0.26447
H          4.79040       -0.79259        0.80936
H          5.73872       -0.69947       -0.68143
C          3.89231       -1.67442       -0.88771
O          3.77313       -2.79559       -0.42718
O          3.31066       -1.31227       -2.03841
H          2.79031       -2.06560       -2.38183
O          5.23538        1.69343        0.02842
H          4.83497        2.58170        0.08791
O          3.10996        3.43769        0.23319
H          2.81590        4.29165       -0.12340
O         -5.10351       -2.55094       -1.18289
H         -5.76666       -2.83351       -0.53224
H         -0.69902       -2.63679        2.12565
H         -1.08296       -0.54949       -1.66439
H         -3.65776       -2.62002        0.28328
H         -2.73560        1.14369       -1.54907
H         -1.41242        1.18586        1.18796
H         -1.62223        3.53802        1.12880
H          2.23778        2.47411       -1.37679
H          4.15813        1.00491       -1.59543
