15
id_410_cb.log	Energy: -217211.7997952
C          2.25686       -0.02570        0.19035
H          3.32809       -0.04540        0.37047
C          1.54498       -1.22019        0.05784
H          2.06301       -2.17270        0.13317
C          0.16987       -1.19064       -0.17613
H         -0.38284       -2.12301       -0.28047
C         -0.51738        0.02484       -0.28112
C          0.20811        1.21385       -0.14761
H         -0.31371        2.16596       -0.22900
C          1.58449        1.19314        0.08650
H          2.13263        2.12650        0.18490
C         -2.02753        0.04500       -0.44722
H         -2.29744       -0.78944       -1.12598
H         -2.28831        0.97546       -0.99080
O         -2.69473       -0.04740        0.78026
