37
id_433_cb.log	Energy: -803714.9727488
C          6.17600       -1.55259       -1.25823
H          5.55616       -2.35171       -1.67402
H          6.01783       -0.64139       -1.84064
H          7.22590       -1.84495       -1.35043
C          5.83836       -1.32529        0.20043
H          5.98385       -2.23271        0.78794
H          6.43416       -0.52055        0.63489
O          4.44109       -1.01710        0.36803
C          4.07610        0.25105        0.09135
O          4.88408        1.12627       -0.20727
N          2.73341        0.43504        0.15711
C          2.23083        1.81030        0.13644
H          2.94237        2.42729       -0.40965
H          2.17250        2.18681        1.16781
C          0.85408        1.88102       -0.51300
H          0.48459        2.90900       -0.44906
H          0.93581        1.61661       -1.57538
C         -0.11915        0.92501        0.16800
H         -0.24865        1.23487        1.20994
C          0.45795       -0.49173        0.13981
H         -0.20673       -1.18254        0.66752
H          0.53087       -0.82175       -0.90414
C          1.83714       -0.53938        0.78776
H          1.75297       -0.30814        1.85930
H          2.26539       -1.53414        0.68772
N         -1.41977        1.01403       -0.48555
H         -1.37000        0.95263       -1.49824
C         -2.53567        0.42073        0.05403
C         -3.64921        0.16828       -0.77958
H         -3.60601        0.38938       -1.84057
C         -4.77428       -0.36228       -0.19231
C         -4.81520       -0.64543        1.17417
H         -5.69225       -1.06590        1.64961
C         -3.66333       -0.36398        1.88881
H         -3.63548       -0.56972        2.95592
N         -2.54333        0.15325        1.36709
Cl        -6.17756       -0.69335       -1.17772
