27
id_49_cb.log	Energy: -680232.4510880
C         -4.07982        1.12478        0.64074
H         -4.91020        1.65610        1.09395
C         -3.94436        1.14002       -0.75821
H         -4.67230        1.68019       -1.35447
C         -2.90014        0.47899       -1.40065
H         -2.78185        0.48088       -2.47800
C         -2.02200       -0.18967       -0.56502
C         -2.12957       -0.21875        0.82417
C         -3.17792        0.44903        1.45574
H         -3.27854        0.43945        2.53568
N         -1.05882       -0.95606        1.34315
C         -0.40433       -1.33213        0.29690
O         -0.91356       -0.92611       -0.90429
S          1.01169       -2.35753        0.26691
C          2.00059       -1.42883       -0.97629
H          2.89681       -2.03879       -1.10945
H          1.44494       -1.40106       -1.91462
C          2.35780       -0.05249       -0.48983
C          1.61117        1.05486       -0.89392
H          0.78624        0.93069       -1.58825
C          1.95272        2.30975       -0.39860
H          1.39155        3.18990       -0.69625
C          3.02557        2.41149        0.47868
H          3.33279        3.36573        0.89173
C          3.71088        1.24816        0.81896
H          4.55866        1.29383        1.49765
N          3.39451        0.03624        0.35542
