35
id_466_cb.log	Energy: -792724.8207729
C         -2.24548       -3.01672        1.54874
H         -2.51629       -3.80972        2.23877
C         -2.30174       -3.23674        0.17304
H         -2.61472       -4.20226       -0.21224
C         -1.94680       -2.22066       -0.71054
H         -1.98118       -2.39351       -1.78386
C         -1.54003       -0.97462       -0.22836
C         -1.48452       -0.75779        1.15019
H         -1.16071        0.20611        1.53575
C         -1.83510       -1.77686        2.03425
H         -1.78597       -1.60022        3.10433
C         -1.21580        0.12315       -1.22064
C         -2.45839        0.87307       -1.70596
H         -2.12779        1.65339       -2.40263
H         -3.05353        0.15505       -2.28258
C         -3.34068        1.49247       -0.62034
H         -3.67121        0.71441        0.07557
H         -4.24414        1.87179       -1.10814
N         -2.75864        2.58620        0.16535
H         -2.36255        3.26304       -0.48903
H         -1.94358        2.22227        0.65787
O         -0.34827        1.11168       -0.64360
C          0.91631        0.78517       -0.31357
C          1.54050       -0.42480       -0.61594
H          1.01915       -1.21898       -1.13626
C          2.86461       -0.59720       -0.22640
C          3.59098        0.37502        0.45489
H          4.62087        0.19930        0.74116
C          2.95816        1.57124        0.76140
H          3.48741        2.35176        1.29685
C          1.62999        1.77787        0.38555
C          0.94938        2.99556        0.70872
N          0.38824        3.97641        0.97068
Cl         3.64353       -2.10968       -0.61136
H         -0.71530       -0.30850       -2.09606
