42
id_483_cb.log	Energy: -600831.3614721
C         -4.71043       -0.24891        1.96756
H         -4.66130       -1.25204        1.53265
H         -5.63388        0.22807        1.60334
H         -4.78277       -0.35475        3.05263
N         -3.50097        0.49090        1.61849
H         -3.55599        1.40221        2.07404
C         -3.45575        0.74028        0.17924
H         -3.39604       -0.22676       -0.33324
H         -4.37531        1.23082       -0.18200
C         -2.26357        1.60340       -0.21208
H         -2.31800        2.57212        0.29950
H         -2.29535        1.80382       -1.28947
C         -0.91165        0.98167        0.12416
C          0.23263        1.87779       -0.29986
C          0.81869        2.74038        0.62799
H          0.47248        2.73141        1.65914
C          1.84420        3.60020        0.23967
H          2.29570        4.26634        0.96845
C          2.29463        3.59686       -1.07944
H          3.09790        4.26135       -1.38219
C          1.71410        2.73348       -2.00782
H          2.06439        2.72498       -3.03542
C          0.68487        1.87833       -1.62086
H          0.23540        1.20131       -2.34261
O         -0.88023       -0.27339       -0.57281
C          0.09629       -1.16433       -0.29534
C          1.12572       -0.94783        0.62048
H          1.18806       -0.01587        1.16363
C          2.08438       -1.94578        0.81209
C          2.02305       -3.16054        0.11173
H          2.78532       -3.91078        0.28696
C          0.99709       -3.36942       -0.78657
H          0.92960       -4.30127       -1.33780
C          0.02786       -2.37911       -1.00131
C         -1.04196       -2.58443       -1.92416
N         -1.91277       -2.75474       -2.67319
O          3.12421       -1.81120        1.66704
C          3.24931       -0.58240        2.37732
H          4.15384       -0.67781        2.97659
H          2.38766       -0.42188        3.03262
H          3.35120        0.25982        1.68523
H         -0.85539        0.78480        1.20034
