32
id_450_cb.log	Energy: -739497.8542353
C         -5.05994        2.69104        0.62323
H         -4.71188        3.68739        0.33270
H         -4.87865        2.57033        1.69712
H         -6.14236        2.64970        0.45755
C         -4.34270        1.60472       -0.17610
H         -3.26080        1.67484       -0.00891
H         -4.51284        1.74990       -1.24958
C         -4.82727        0.21895        0.22603
H         -4.67873        0.04920        1.29808
H         -5.89775        0.10841        0.01911
S         -4.02985       -1.14735       -0.69414
C         -2.33351       -0.94140       -0.17323
C         -1.97411       -1.18956        1.16661
H         -2.74058       -1.50558        1.86942
C         -0.66145       -1.03815        1.60546
H         -0.39618       -1.22663        2.64227
C          0.31169       -0.65074        0.67875
C         -0.06394       -0.42002       -0.66302
C         -1.37537       -0.54760       -1.11146
H         -1.64781       -0.34389       -2.14277
N          1.10741       -0.06353       -1.28948
H          1.23376        0.17860       -2.26460
C          2.12384       -0.08567       -0.35259
N          1.66776       -0.43912        0.84907
N          3.35959        0.24562       -0.80041
C          4.40443        0.25122        0.02654
O          4.50173       -0.01232        1.23729
O          5.54009        0.62763       -0.66146
C          6.74261        0.69103        0.10088
H          7.51697        1.01086       -0.59688
H          6.65323        1.41732        0.91297
H          6.99775       -0.28901        0.51252
