32
id_448_cb.log	Energy: -421970.2551492
C          2.79283        1.42672       -1.22329
H          3.65572        1.74808       -0.63729
H          1.97432        2.13832       -1.13152
H          3.06580        1.31673       -2.27227
N          2.35347        0.09442       -0.71391
H          1.45416       -0.11686       -1.16644
C          3.32408       -0.95947       -1.12965
H          3.48186       -0.87287       -2.20424
H          2.91944       -1.94241       -0.89678
H          4.25914       -0.78851       -0.59325
C          2.13287        0.09656        0.79147
C          1.60649       -1.25892        1.26224
H          2.35043       -2.05028        1.14258
H          1.43379       -1.15165        2.33834
C          0.29809       -1.63711        0.56110
H          0.51279       -2.07091       -0.42768
H         -0.19467       -2.43564        1.12624
C         -0.64805       -0.46448        0.38886
C         -0.25658        0.86824        0.64932
C         -1.16958        1.89705        0.41632
H         -0.86459        2.92462        0.60819
C         -2.46265        1.64169       -0.05096
H         -3.15724        2.46107       -0.22363
C         -2.89056        0.32703       -0.31870
C         -1.93022       -0.69688       -0.08747
O         -2.33661       -1.98621       -0.37200
H         -3.26116       -1.87983       -0.68231
O         -4.07837       -0.01831       -0.76643
C          1.12477        1.16824        1.19407
H          1.11931        1.16451        2.29158
H          1.44787        2.17042        0.90014
H          3.11970        0.30840        1.21329
