37
id_438_ca.log	Energy: -1136907.2717919
C          6.04889        1.59855        0.74892
H          6.43663        2.35861        1.41880
C          6.86435        0.99862       -0.20006
H          7.91143        1.26323       -0.29476
C          6.30597        0.04189       -1.04697
H          6.91786       -0.44276       -1.80238
N          5.02893       -0.33608       -0.99547
C          4.25800        0.24144       -0.06546
C          4.71286        1.21340        0.82335
H          4.04564        1.68577        1.53710
C          2.83783       -0.20455       -0.04197
N          2.22580       -0.50052       -1.14788
C          0.91744       -0.89855       -1.06272
C          0.23624       -1.04476        0.15782
C          0.92874       -0.66484        1.30630
N          2.23143       -0.26494        1.17111
N          0.42421       -0.68125        2.54041
H          0.96767       -0.35201        3.32945
H         -0.56058       -0.85642        2.68961
C         -1.17832       -1.54392        0.22055
H         -1.34146       -2.08863        1.15866
H         -1.32419       -2.29991       -0.56027
C         -2.24497       -0.47178        0.07984
C         -1.93321        0.88486       -0.02497
H         -0.89150        1.19167       -0.01019
C         -2.91873        1.85935       -0.15013
H         -2.65205        2.90726       -0.23069
C         -4.24959        1.46601       -0.17052
C         -4.61256        0.12847       -0.06957
H         -5.65379       -0.17322       -0.08600
C         -3.60071       -0.81518        0.05384
Cl        -4.06771       -2.49607        0.18201
Cl        -5.50406        2.67116       -0.32646
N          0.32849       -1.14744       -2.23398
H          0.85542       -1.00568       -3.08618
H         -0.66002       -1.34687       -2.30703
H          2.76348       -0.04011        2.01059
