16
id_411_ca.log	Energy: -420178.6511850
C          2.65381        0.00239       -0.37186
H          3.69035        0.00678       -0.69633
C          1.98457       -1.20803       -0.17945
H          2.50015       -2.14859       -0.35202
C          0.65422       -1.21307        0.23711
H          0.13247       -2.15631        0.38501
C         -0.02232       -0.01039        0.46891
C          0.65577        1.19800        0.27791
H          0.13619        2.13661        0.46036
C          1.98645        1.20588       -0.14138
H          2.50210        2.15130       -0.28458
C         -1.46420       -0.00717        0.89240
H         -1.69360        0.87082        1.49994
H         -1.70521       -0.90017        1.47505
S         -2.62869       -0.05295       -0.53013
H         -2.19316        1.08105       -1.10719
