53
id_418_ca.log	Energy: -1010686.2892325
C          3.06094        4.51491        0.23818
H          3.51611        5.49744        0.16095
C          2.97304        3.69358       -0.88710
H          3.36027        4.03650       -1.84178
C          2.39381        2.43244       -0.78958
H          2.33675        1.79467       -1.66776
C          1.88750        1.97903        0.43297
C          1.97571        2.80551        1.55281
H          1.57957        2.45935        2.50421
C          2.56318        4.06756        1.45864
H          2.62573        4.70018        2.33880
C          1.26257        0.59605        0.55491
C          2.33229       -0.45663        0.30769
C          3.10918       -0.89259        1.38238
H          2.90291       -0.51439        2.38048
C          4.14724       -1.80126        1.19856
H          4.74657       -2.13698        2.03810
C          4.39913       -2.27691       -0.08288
C          3.64026       -1.86473       -1.17231
H          3.84871       -2.25129       -2.16423
C          2.60982       -0.95106       -0.96927
H          2.00781       -0.63343       -1.81490
Cl         5.69693       -3.42721       -0.33000
N          0.11031        0.44205       -0.34953
C         -0.88115        1.48670       -0.08116
H         -1.21954        1.44985        0.97053
H         -0.44068        2.47042       -0.25441
C         -2.08098        1.36530       -1.00109
H         -2.81945        2.12659       -0.74875
H         -1.79668        1.45806       -2.05218
N         -2.72097        0.02347       -0.84598
C         -1.70737       -1.05623       -1.05336
H         -1.40426       -1.00925       -2.10229
H         -2.20269       -2.00792       -0.85322
C         -0.53147       -0.85528       -0.12014
H         -0.87534       -0.94650        0.92664
H          0.17800       -1.66332       -0.30769
C         -3.91083       -0.18281       -1.72432
H         -4.20104       -1.23060       -1.60857
H         -3.60147       -0.01173       -2.75811
C         -5.04759        0.74594       -1.33493
H         -5.93496        0.46847       -1.91495
H         -4.80654        1.78649       -1.55962
O         -5.31831        0.69952        0.05926
C         -6.05506       -0.41807        0.49479
H         -6.75615       -0.09047        1.26920
H         -6.63790       -0.87335       -0.31556
C         -5.17036       -1.48235        1.10876
O         -3.95948       -1.42403        1.19852
O         -5.89237       -2.50260        1.56464
H          0.92375        0.48246        1.60031
H         -3.06827       -0.07470        0.12515
H         -5.29223       -3.16032        1.96765
