18
id_44_ca.log	Energy: -273299.5187867
C          2.58228       -0.70090        0.00150
H          3.52768       -1.23257        0.00253
C          2.58227        0.70089        0.00150
H          3.52768        1.23257        0.00253
C          1.39598        1.43040        0.00044
H          1.38631        2.51448        0.00077
C          0.21705        0.69913       -0.00097
C          0.21706       -0.69912       -0.00097
C          1.39598       -1.43040        0.00044
H          1.38629       -2.51447        0.00078
N         -1.12232       -1.09242       -0.00027
H         -1.47423       -2.04466        0.00189
C         -1.90507       -0.00001        0.00020
N         -1.12233        1.09242       -0.00028
N         -3.23237       -0.00000       -0.04047
H         -3.72681       -0.86764        0.13193
H         -3.72680        0.86765        0.13191
H         -1.47426        2.04465        0.00199
