59
id_494_cb.log	Energy: -1208952.4639032
C          0.31167       -3.64531       -0.38474
H         -0.34789       -4.49421       -0.58077
H          0.98398       -3.90984        0.43710
H          0.91881       -3.48358       -1.28353
C         -0.51654       -2.44309       -0.05331
C         -0.13635       -1.19706        0.52437
C         -1.32941       -0.46709        0.63793
N         -2.30497       -1.28407        0.14219
N         -1.82167       -2.48185       -0.27444
C         -3.69403       -1.00322        0.00825
C         -4.41611       -0.51187        1.09560
H         -3.91892       -0.34100        2.04381
C         -5.77566       -0.24507        0.95638
H         -6.36551        0.13855        1.78242
C         -6.37344       -0.49614       -0.26859
C         -5.68066       -0.99824       -1.35841
H         -6.19491       -1.17852       -2.29673
C         -4.31818       -1.24764       -1.21430
H         -3.73925       -1.62548       -2.05089
F         -7.69754       -0.24297       -0.40517
N         -1.61835        0.78009        1.15765
S         -1.61957        1.98162        0.13336
O         -2.16588        3.17261        0.81659
O         -2.23202        1.66079       -1.18022
C          0.09765        2.35396       -0.22732
C          0.80665        3.17826        0.64601
H          0.29528        3.68972        1.45546
C          2.17929        3.31593        0.48696
H          2.75573        3.94076        1.16141
C          2.82031        2.62398       -0.54927
C          2.09926        1.82459       -1.44350
H          2.60869        1.31607       -2.25486
C          0.72553        1.68637       -1.27659
H          0.15380        1.06014       -1.95447
C          4.24871        2.72451       -0.68575
N          5.40198        2.79820       -0.78805
C          1.20441       -0.74264        0.94947
O          1.36293        0.15228        1.80173
N          2.25853       -1.36395        0.38184
H          2.08345       -2.00899       -0.37798
C          3.65269       -1.06261        0.72393
C          3.96458       -1.54706        2.14209
H          4.93212       -1.16524        2.47898
H          3.98367       -2.64052        2.19253
H          3.20299       -1.18778        2.83812
C          4.59840       -1.63973       -0.36144
C          4.44276       -3.15826       -0.52421
H          3.45662       -3.44131       -0.91318
H          4.60424       -3.69214        0.41784
H          5.18577       -3.52142       -1.24343
C          4.31986       -0.96196       -1.70843
H          4.97637       -1.38285       -2.47872
H          4.52059        0.11404       -1.64792
H          3.28481       -1.10157       -2.04143
C          6.04623       -1.32711        0.03637
H          6.16861       -0.26080        0.26609
H          6.71762       -1.57397       -0.79370
H          6.36606       -1.90690        0.90811
H          3.76366        0.03234        0.70047
