61
id_40_cb.log	Energy: -885292.5157972
C         -2.43343       -2.02282        1.27666
H         -2.57581       -2.30463        0.22948
H         -1.48043       -2.45183        1.60483
H         -3.23676       -2.47608        1.86874
C         -2.41692       -0.50928        1.48727
H         -1.56327       -0.10021        0.92154
C         -2.15682       -0.22054        2.96381
H         -1.29616       -0.80811        3.29682
H         -3.02131       -0.50785        3.57354
H         -1.93087        0.83183        3.15569
N         -3.69428        0.08518        1.02502
C         -3.80943        0.08715       -0.44281
H         -4.84361        0.35410       -0.69069
H         -3.62995       -0.91724       -0.83536
C         -2.86467        1.06368       -1.13993
H         -3.07256        1.05816       -2.21590
H         -1.82933        0.71981       -1.00989
N         -3.06765        2.43017       -0.63535
C         -2.93788        2.46601        0.82442
H         -3.16633        3.48086        1.16954
H         -1.90783        2.23585        1.15125
C         -3.90445        1.47342        1.45936
H         -3.84850        1.54023        2.54696
H         -4.92631        1.74976        1.17358
C         -2.19715        3.41294       -1.28371
H         -2.58682        4.41934       -1.09770
H         -2.23812        3.23773       -2.36456
C         -0.77270        3.41246       -0.82239
C          0.08790        4.32915       -0.31540
H         -0.07666        5.38415       -0.15376
N          1.29332        3.71357        0.00750
C          1.10956        2.46570       -0.30074
O         -0.11130        2.21721       -0.82557
C          1.96682        1.29939       -0.12036
C          1.38750        0.04477       -0.13631
H          0.31221       -0.03094       -0.24241
C          2.13606       -1.14970        0.01655
C          3.50842       -1.08349        0.20529
H          4.11281       -1.97938        0.30533
C          4.09450        0.19294        0.24174
C          3.36192        1.38899        0.08225
C          4.34025        2.41887        0.16593
H          4.20604        3.48818        0.09671
N          5.54275        1.91114        0.35821
N          5.39009        0.57358        0.40091
H          6.19698       -0.02051        0.54304
C          1.41337       -2.44584        0.00178
C          1.79822       -3.47921        0.85026
H          2.63420       -3.32199        1.52571
C          1.11477       -4.70942        0.88808
H          1.45002       -5.47908        1.57597
C          0.01927       -4.94613        0.07662
H         -0.51985       -5.88782        0.10258
C         -0.37352       -3.91455       -0.78275
C          0.29558       -2.66363       -0.84564
C         -0.39528       -1.88498       -1.84025
H         -0.16053       -0.88800       -2.18462
C         -1.41999       -2.66181       -2.31317
H         -2.16226       -2.44462       -3.06837
N         -1.40695       -3.88070       -1.68509
H         -2.06109       -4.63411       -1.85134
