63
id_498_cb.log	Energy: -1067185.3260098
C          6.42971       -1.30451       -1.31384
H          6.60975       -0.41939       -1.93028
H          6.70953       -2.18372       -1.90599
H          7.09130       -1.26774       -0.44384
C          4.98627       -1.39047       -0.89489
C          3.97260       -0.86755       -1.70708
H          4.23532       -0.37318       -2.63927
C          2.63280       -0.96988       -1.33970
H          1.85609       -0.55964       -1.98008
C          2.30086       -1.60243       -0.14181
C          3.29007       -2.12737        0.68569
H          3.02216       -2.60807        1.62202
C          4.62526       -2.01890        0.30340
H          5.40069       -2.42856        0.94634
S          0.59221       -1.60890        0.38567
O         -0.17646       -1.84898       -0.86253
O          0.46791       -2.66887        1.41219
N          0.28397       -0.22271        1.10190
C          0.17223        0.88449        0.27673
C         -0.77852        1.18536       -0.70646
C         -0.42247        2.46311       -1.19332
N          0.63511        2.92955       -0.54464
N          1.01528        1.96010        0.33026
C          2.01337        2.29154        1.38979
C          2.76006        3.56390        0.99222
H          3.27651        3.43974        0.03522
H          3.50820        3.76612        1.76469
H          2.09375        4.42579        0.92140
C          1.25061        2.52660        2.69658
H          0.71544        1.62315        3.00379
H          0.52919        3.34226        2.57676
H          1.95418        2.79966        3.49019
C          3.03184        1.16281        1.55916
H          2.56803        0.25838        1.95180
H          3.79956        1.49612        2.26553
H          3.51906        0.92792        0.60601
C         -1.09372        3.27442       -2.25456
H         -0.95012        2.82983       -3.24459
H         -0.68118        4.28678       -2.26588
H         -2.17211        3.33671       -2.07604
C         -1.99554        0.43186       -1.05747
O         -2.44803        0.42987       -2.22144
N         -2.61941       -0.17736       -0.03202
H         -2.11549       -0.19010        0.85124
C         -3.71997       -1.13068       -0.17499
C         -3.35976       -2.38212        0.62487
H         -4.13488       -3.14766        0.53814
H         -3.22408       -2.14755        1.68714
H         -2.42105       -2.80068        0.25037
C         -5.08364       -0.49234        0.20477
C         -5.33359        0.72580       -0.69150
H         -5.35636        0.43685       -1.74930
H         -4.55675        1.48803       -0.56273
H         -6.29887        1.18247       -0.44363
C         -6.20547       -1.50889       -0.03757
H         -6.16324       -2.34435        0.66858
H         -6.15500       -1.91653       -1.05520
H         -7.18081       -1.02306        0.08239
C         -5.10329       -0.05143        1.67159
H         -6.05530        0.44273        1.89861
H         -4.29794        0.66060        1.88725
H         -5.00101       -0.90255        2.35361
H         -3.77013       -1.39106       -1.23890
