53
id_420_ca.log	Energy: -1010682.7290199
C         -4.15334       -4.01826        0.34420
H         -4.83999       -4.85714        0.28603
C         -3.83814       -3.29035       -0.80442
H         -4.28004       -3.56203       -1.75829
C         -2.96246       -2.21173       -0.73140
H         -2.72852       -1.64451       -1.62845
C         -2.38321       -1.85262        0.49017
C         -2.69911       -2.58630        1.63338
H         -2.24736       -2.31400        2.58402
C         -3.58355       -3.66309        1.56343
H         -3.82184       -4.22457        2.46164
C         -1.43547       -0.66527        0.58824
C         -2.20564        0.61218        0.29077
C         -2.85717        1.26484        1.33863
H         -2.75952        0.88193        2.35133
C         -3.63397        2.39667        1.10938
H         -4.13715        2.89987        1.92798
C         -3.74924        2.87555       -0.19023
C         -3.10854        2.25012       -1.25378
H         -3.20662        2.64189       -2.26056
C         -2.34021        1.11617       -1.00538
H         -1.83007        0.62963       -1.83085
Cl        -4.71865        4.30227       -0.49401
N         -0.26798       -0.82942       -0.29462
C          0.42398       -2.08313        0.01388
H          0.74216       -2.11134        1.07205
H         -0.24551       -2.92888       -0.15448
C          1.62870       -2.28194       -0.88312
H          1.34565       -2.30855       -1.93808
H          2.16208       -3.19645       -0.62046
N          2.59078       -1.14270       -0.73285
H          2.91326       -1.13044        0.24707
C          1.87915        0.15140       -0.99197
H          1.59343        0.14008       -2.04660
H          2.57426        0.97067       -0.80664
C          0.67465        0.27108       -0.08091
H          0.19312        1.22522       -0.30307
H          1.01420        0.30455        0.97088
C          3.79802       -1.33693       -1.59661
H          3.48269       -1.21816       -2.63513
H          4.13505       -2.36193       -1.43029
C          4.90208       -0.36549       -1.24738
H          4.62091        0.67542       -1.45245
H          5.77928       -0.60944       -1.85701
O          5.19783       -0.54307        0.13462
C          6.24132        0.29388        0.58457
H          7.03224        0.40347       -0.16413
H          6.66849       -0.16237        1.48263
C          5.74244        1.67606        0.97279
O          6.48097        2.62119        1.13398
O          4.42615        1.78479        1.17572
H          4.01021        0.91061        1.03618
H         -1.09408       -0.60763        1.63721
