38
id_441_ca.log	Energy: -1113712.3043247
C          1.28173        4.60406       -0.22315
H          0.69102        4.78014       -1.12652
H          1.68019        5.56315        0.11840
H          0.61609        4.21380        0.55423
C          2.42686        3.62729       -0.50262
H          3.03653        3.47971        0.39319
H          3.07445        4.02277       -1.29239
C          1.87803        2.30852       -0.99111
O          1.22511        2.22239       -2.04272
N          2.11895        1.22645       -0.22154
H          2.54565        1.35826        0.68974
C          1.51082       -0.06666       -0.51141
C          2.20428       -1.14105        0.29041
C          1.78224       -1.74606        1.44170
H          0.82858       -1.52622        1.91123
C          2.72290       -2.69752        1.94752
H          2.56965       -3.28219        2.84764
C          3.83939       -2.79413        1.16840
H          4.70388       -3.43112        1.30845
S          3.76197       -1.73395       -0.18979
C          0.01147       -0.07549       -0.25525
C         -0.60957        0.87827        0.58424
H         -0.00314        1.64734        1.05439
C         -1.96130        0.84762        0.80927
C         -2.79016       -0.13725        0.20977
C         -4.19493       -0.24291        0.37640
H         -4.72286        0.46672        1.00562
C         -4.87145       -1.24840       -0.26497
H         -5.94512       -1.35982       -0.15981
C         -4.15177       -2.15652       -1.07807
H         -4.67790       -2.95762       -1.59026
N         -2.85005       -2.09279       -1.25893
C         -2.16812       -1.09832       -0.62859
C         -0.76028       -1.05088       -0.84469
O         -0.17837       -1.98688       -1.63775
H         -0.88753       -2.56907       -1.97741
Cl        -2.67771        2.05381        1.85409
H          1.66302       -0.26040       -1.57952
