36
id_421_cb.log	Energy: -930696.3148383
N         -4.25317        0.11033        0.82208
H         -4.26653        1.04400        0.41594
C         -3.31159       -0.60606        0.33343
S         -2.06088       -0.08848       -0.84846
C         -2.25839        1.72233       -0.79047
H         -3.13672        2.01678       -1.37023
H         -2.40696        2.01696        0.25261
C         -1.00142        2.39930       -1.34720
H         -0.80395        2.04764       -2.36533
H         -1.21977        3.47106       -1.41194
C          0.20937        2.17475       -0.47297
C          1.27050        1.37214       -0.89817
H          1.23708        0.92490       -1.88968
C          2.37086        1.12233       -0.07166
C          2.40329        1.70063        1.20199
H          3.25312        1.51025        1.85328
C          1.35345        2.50694        1.63692
H          1.38795        2.95594        2.62497
C          0.26143        2.73995        0.80459
H         -0.55756        3.36927        1.14573
C          3.46393        0.17550       -0.49445
H          4.42516        0.52132       -0.09767
H          3.54901        0.14935       -1.58540
C          3.25096       -1.24922        0.03195
H          3.07258       -1.25715        1.11057
H          4.14127       -1.85221       -0.16199
S          1.88862       -2.15886       -0.78642
C          0.51480       -2.15496        0.35553
N         -0.42762       -3.01578        0.23626
H         -0.22764       -3.69515       -0.49728
N          0.52345       -1.24262        1.37502
H         -0.37686       -1.18505        1.84535
H          0.91017       -0.32840        1.15809
N         -3.18162       -1.93414        0.62677
H         -3.76856       -2.24560        1.39296
H         -2.24600       -2.35276        0.58019
