15
id_412_ca.log	Energy: -240207.0065475
C         -2.45568       -0.69207        0.23447
H         -2.45401       -1.43080        1.04234
H         -2.56809       -1.21546       -0.72133
H         -3.31743       -0.03138        0.37524
C         -1.16844        0.11532        0.24845
C          0.03901       -0.76396       -0.01857
H         -0.01846       -1.20255       -1.02068
H          0.06417       -1.59519        0.69736
C          1.34444       -0.03119        0.12333
O          1.50809        1.01485        0.72285
O          2.35896       -0.68089       -0.46886
H          3.18871       -0.18822       -0.31378
O         -1.17770        1.11221       -0.77908
H         -1.91668        1.71774       -0.60611
H         -1.04890        0.60790        1.22163
