24
id_47_ca.log	Energy: -348265.8930019
C         -0.11552       -1.59767        0.36554
H         -0.74067       -2.47116        0.52719
C          1.26340       -1.73914        0.14228
H          1.72178       -2.72519        0.12297
C          2.08569       -0.62913       -0.05675
C          1.58072        0.68487       -0.04676
C          0.22209        0.81070        0.16559
C         -0.59591       -0.29783        0.36792
C         -1.84559        0.56033        0.53192
C         -0.91298        1.80465        0.29565
H         -0.85133        2.48928        1.14512
H         -1.14570        2.37093       -0.61197
C         -2.92214        0.40871       -0.52170
H         -2.50182        0.41755       -1.52929
H         -3.67859        1.19035       -0.43524
N         -3.63021       -0.90008       -0.35735
H         -2.98268       -1.69046       -0.46127
H         -4.37187       -1.01313       -1.05708
H         -4.06129       -0.97011        0.57173
O          2.39894        1.76610       -0.23962
H          3.31318        1.45447       -0.36747
O          3.44138       -0.72400       -0.27532
H         -2.28908        0.53395        1.53330
H          3.71832       -1.65569       -0.27930
