52
id_461_ca.log	Energy: -955525.0902311
C         -7.33325       -0.89755       -0.93051
H         -8.30687       -0.83465       -1.40632
C         -6.54003       -2.02925       -1.11437
H         -6.89285       -2.84790       -1.73337
C         -5.29629       -2.11376       -0.49664
H         -4.67659       -2.99668       -0.61959
C         -4.83056       -1.05420        0.28578
C         -5.62938        0.07755        0.47444
H         -5.28222        0.89150        1.10459
C         -6.88097        0.15071       -0.13021
H         -7.50394        1.02537        0.02641
C         -3.51498       -1.22955        0.97901
O         -3.22699       -2.31675        1.48131
N         -2.68307       -0.14449        1.08986
C         -2.58259        0.87056        0.03993
H         -2.29557        1.82113        0.50130
H         -3.53548        1.01160       -0.46559
C         -1.54855        0.46209       -1.00006
H         -1.83294       -0.46563       -1.50537
H         -1.39957        1.25722       -1.73351
N         -0.22533        0.20967       -0.34219
C         -0.34788       -0.81510        0.74649
H         -0.63445       -1.75315        0.26308
H          0.63094       -0.92117        1.21672
C         -1.39670       -0.36061        1.74818
H         -1.50516       -1.11501        2.52492
H         -1.08850        0.58182        2.21213
C          0.82824       -0.14932       -1.35593
H          0.59926       -1.15640       -1.70908
H          0.71087        0.55942       -2.17984
C          2.20530       -0.07010       -0.76285
C          3.01758       -1.18791       -0.64309
H          2.64809       -2.15291       -0.97812
C          4.29301       -1.06913       -0.09109
C          4.75818        0.16405        0.35107
H          5.74854        0.25036        0.78557
C          3.95469        1.29652        0.24650
H          4.31907        2.25509        0.59671
C          2.68807        1.17061       -0.31351
O          1.81514        2.20797       -0.46134
C          2.07231        3.42390        0.21932
H          2.26098        3.24932        1.28303
H          2.92591        3.95139       -0.22015
C          0.84655        4.30525        0.09305
O          0.74372        5.33319        0.72150
O         -0.11521        3.91086       -0.74326
H          0.14983        3.09812       -1.21561
C          5.17834       -2.27448       -0.01929
F          5.88414       -2.45222       -1.15122
F          6.07102       -2.18639        0.97845
F          4.47505       -3.40230        0.17099
H          0.06760        1.09938        0.09139
