22
id_488_cb.log	Energy: -486002.5354706
C          3.99561       -0.42997       -0.96168
H          4.89281       -0.26094       -1.54075
C          3.39508        0.45504       -0.00177
H          3.73523        1.43743        0.29721
C          2.28982       -0.17939        0.46785
O          2.15940       -1.39966       -0.13857
C          3.20477       -1.53185       -1.00675
H          3.23632       -2.45380       -1.56852
C          1.24190        0.17827        1.46222
H          1.52202        1.10052        1.96993
H          1.12995       -0.61172        2.20894
N         -0.07328        0.36752        0.83027
C         -0.96794       -0.63831        0.81046
H         -0.70193       -1.54391        1.34792
C         -2.15109       -0.49890        0.14625
C         -2.43163        0.75519       -0.55666
O         -3.51711        0.90836       -1.16596
N         -1.49164        1.72849       -0.52663
C         -0.32578        1.57058        0.12187
O          0.56602        2.43974        0.14666
C         -3.11031       -1.54666        0.13205
N         -3.90987       -2.39017        0.10566
