14
id_412_cb.log	Energy: -239922.8424845
C         -2.43842       -0.58097        0.17475
H         -2.51067       -1.35314        0.94773
H         -2.56443       -1.05390       -0.80564
H         -3.25680        0.13156        0.32582
C         -1.09519        0.12606        0.25356
C          0.06487       -0.81759       -0.01287
H         -0.05188       -1.27469       -1.00125
H          0.04161       -1.62092        0.73408
C          1.43031       -0.13345        0.08234
O          1.64121        0.62245        1.07390
O          2.27777       -0.38286       -0.82267
O         -1.01043        1.16408       -0.73461
H         -1.72378        1.80069       -0.56694
H         -0.97188        0.57671        1.24651
