34
id_428_cb.log	Energy: -399414.7755004
C         -1.83969        0.07683        2.70714
H         -2.39797        1.01402        2.79006
H         -0.78313        0.29072        2.89485
H         -2.20033       -0.59465        3.49224
C         -2.01468       -0.57642        1.34277
H         -3.06983       -0.86120        1.19468
H         -1.43760       -1.50720        1.32795
N         -1.54036        0.27980        0.24531
C         -2.54488        1.29422       -0.09536
H         -3.41208        0.84385       -0.60682
H         -2.92337        1.69952        0.84757
C         -1.99277        2.44564       -0.92372
H         -1.16336        2.93341       -0.40241
H         -2.77862        3.18924       -1.08747
H         -1.63953        2.12291       -1.90814
C         -1.12822       -0.51304       -0.92519
C         -2.15996       -1.50560       -1.45684
H         -1.77881       -1.99549       -2.35715
H         -3.08665       -0.98918       -1.72071
H         -2.38922       -2.28239       -0.72290
C          0.18199       -1.22161       -0.57620
O          0.23507       -2.44202       -0.52738
C          1.40205       -0.40860       -0.27826
C          1.49096        0.95338       -0.58815
H          0.65066        1.47121       -1.03823
C          2.66438        1.65346       -0.32504
H          2.72961        2.70795       -0.57335
C          3.75138        1.00353        0.25785
H          4.66358        1.55388        0.46702
C          3.66783       -0.35281        0.57234
H          4.51265       -0.85995        1.02734
C          2.50012       -1.05584        0.30008
H          2.42479       -2.11252        0.53575
H         -0.88986        0.19455       -1.72689
