31
id_473_cb.log	Energy: -998583.0737115
C          3.53052       -1.85015        1.50062
H          4.10922       -2.53624        2.11126
C          2.73169       -0.88061        2.10446
H          2.68761       -0.80895        3.18690
C          1.98718        0.00011        1.32244
H          1.36237        0.75472        1.79278
C          2.03363       -0.08866       -0.07003
C          2.83162       -1.06352       -0.67177
H          2.86107       -1.13593       -1.75659
C          3.58038       -1.93979        0.11019
H          4.19665       -2.69633       -0.36570
C          1.27805        0.89539       -0.93575
C          2.09954        2.14595       -1.20643
H          3.02876        1.83095       -1.68906
H          2.36620        2.59142       -0.23611
N          1.37534        3.04634       -2.10052
H          1.96743        3.85551       -2.27928
H          0.57219        3.40871       -1.58834
O          0.08911        1.36667       -0.28769
C         -0.95401        0.52181       -0.12591
C         -0.98823       -0.79238       -0.59680
H         -0.14307       -1.22234       -1.12016
C         -2.12921       -1.55766       -0.37830
C         -3.23829       -1.06891        0.29556
H         -4.11379       -1.68725        0.45461
C         -3.19727        0.24089        0.76718
H         -4.04640        0.65596        1.29942
C         -2.07185        1.02226        0.56024
Cl        -2.03334        2.65775        1.15690
Cl        -2.15239       -3.19976       -0.97828
H          1.00641        0.43783       -1.89522
