16
id_404_ca.log	Energy: -420178.9605980
C         -3.32952        0.00570        0.00617
H         -3.71323       -0.37299        0.96025
H         -3.72841       -0.63881       -0.78395
H         -3.72524        1.01446       -0.14025
C         -1.82295        0.00837       -0.00487
C         -1.10585       -1.19477       -0.00383
H         -1.64580       -2.13921       -0.00600
C          0.28567       -1.20923       -0.00013
H          0.81496       -2.15889        0.00112
C          0.99821       -0.00448        0.00081
C          0.29982        1.20426       -0.00239
H          0.83547        2.15012       -0.00444
C         -1.09574        1.20125       -0.00501
H         -1.62563        2.15097       -0.00857
S          2.77652       -0.08230        0.00020
H          2.98580        1.24463        0.03413
