27
id_416_cb.log	Energy: -409501.3200407
C         -4.76322       -1.90632        0.26656
H         -4.82482       -2.67559        1.04302
H         -4.60595       -2.41027       -0.69408
H         -5.73165       -1.39495        0.22088
C         -3.63773       -0.91534        0.55005
H         -2.68396       -1.45233        0.62007
H         -3.80182       -0.43387        1.52321
C         -3.54094        0.16222       -0.52831
H         -4.49903        0.69202       -0.60644
H         -3.35056       -0.29921       -1.50621
C         -2.47482        1.20144       -0.25052
H         -2.62146        1.67227        0.72735
H         -2.45954        1.98026       -1.01842
O         -1.19965        0.53019       -0.25026
C         -0.11474        1.28279       -0.00207
O         -0.20623        2.49138        0.20671
C          1.13782        0.52840       -0.00827
C          2.34894        1.20489        0.23403
H          2.32741        2.27599        0.42011
C          3.55490        0.53385        0.23869
H          4.48179        1.07066        0.42695
C          3.63167       -0.87635       -0.00160
C          2.38662       -1.54165       -0.24367
H          2.40830       -2.61306       -0.42886
C          1.18565       -0.85975       -0.24568
H          0.26429       -1.40444       -0.43369
O          4.75739       -1.50814       -0.00010
