38
id_434_ca.log	Energy: -803992.2348522
C          5.76608       -2.13044       -0.65321
H          6.76754       -2.56713       -0.60261
H          5.06509       -2.90747       -0.97002
H          5.77374       -1.33299       -1.40049
C          5.37944       -1.59138        0.70786
H          5.35964       -2.38273        1.45816
H          6.05547       -0.80174        1.04044
O          4.03116       -1.08079        0.70019
C          3.86547        0.14727        0.17521
O          4.79850        0.84336       -0.21070
N          2.55720        0.51132        0.10280
C          1.50860       -0.20089        0.83525
H          1.79484       -1.24334        0.95048
H          1.39869        0.24073        1.83519
C          0.17847       -0.11860        0.09017
H          0.24996       -0.66047       -0.86094
H         -0.59169       -0.59541        0.70373
C         -0.16325        1.33719       -0.18428
H         -0.37121        1.87249        0.74677
C          0.94574        2.02650       -0.96451
H          1.05082        1.54849       -1.94560
H          0.70766        3.08387       -1.11546
C          2.25720        1.91130       -0.19499
H          2.18862        2.47852        0.74356
H          3.07383        2.32282       -0.78504
N         -1.44453        1.42725       -0.99124
H         -1.30063        0.95222       -1.89414
C         -2.62244        0.87328       -0.31046
C         -3.15181       -0.32924       -0.74550
H         -2.73413       -0.86903       -1.58828
C         -4.25050       -0.79348       -0.03001
C         -4.74887       -0.06689        1.04264
H         -5.60387       -0.41130        1.61198
C         -4.11318        1.12752        1.36483
H         -4.47291        1.72776        2.19381
N         -3.05583        1.60334        0.69955
Cl        -4.99577       -2.28954       -0.48889
H         -1.62405        2.42024       -1.20217
