56
id_491_ca.log	Energy: -1017401.7381778
C          4.78819       -1.09504        2.54885
H          5.10556       -0.99515        3.59156
H          5.50493       -1.74899        2.03904
H          3.81364       -1.59392        2.54335
C          4.72190        0.26895        1.86926
H          5.69179        0.77233        1.94994
H          3.98868        0.91148        2.37692
C          4.36199        0.19493        0.38520
H          5.06355       -0.47564       -0.12380
C          4.40318        1.57438       -0.27989
H          3.64762        2.21210        0.19988
H          5.38151        2.02119       -0.06478
C          4.17776        1.53400       -1.78820
H          4.94977        0.93307       -2.28207
H          4.21259        2.54302       -2.21161
H          3.20306        1.10272       -2.03913
N          3.03213       -0.40059        0.24528
H          2.31347       -0.07423        0.88640
C          2.66822       -1.24242       -0.73018
O          3.46032       -1.69622       -1.57727
C          1.24969       -1.67241       -0.75515
C          0.75189       -2.75246       -1.51019
H          1.29870       -3.40861       -2.17353
N         -0.54469       -2.93568       -1.30903
N         -0.91622       -1.97271       -0.44134
C          0.13725       -1.18828       -0.08075
N          0.04474       -0.07381        0.76901
H         -0.47388       -0.19449        1.64117
S         -0.18282        1.46218        0.10186
O          0.72728        1.54038       -1.04075
O          0.00839        2.37480        1.23033
C         -1.87089        1.57589       -0.48954
H         -1.95937        0.75168       -1.20457
C         -2.89439        1.47818        0.66703
H         -3.66052        0.75303        0.37486
H         -2.45871        1.12840        1.60874
C         -3.49828        2.88524        0.76693
H         -4.49902        2.87240        1.20699
H         -2.86026        3.52708        1.38647
C         -3.47589        3.37824       -0.68107
H         -3.63106        4.45614       -0.77794
H         -4.25257        2.86563       -1.26130
C         -2.08653        2.95134       -1.17194
H         -1.34503        3.67984       -0.82332
H         -1.99855        2.87271       -2.25685
C         -2.27485       -1.89558       -0.00076
C         -3.28406       -1.79418       -0.95749
H         -3.02686       -1.74680       -2.01139
C         -4.61078       -1.75009       -0.53676
H         -5.40423       -1.67175       -1.27366
C         -4.91823       -1.79558        0.82498
H         -5.95403       -1.75529        1.14808
C         -3.89763       -1.89605        1.76980
H         -4.13379       -1.94180        2.82840
C         -2.56615       -1.95732        1.35987
H         -1.76572       -2.07379        2.08638
