99
id_424_cb.log	Energy: -1369261.1552200
C          2.67024        2.37025       -3.59140
H          2.35926        3.20844       -4.22295
H          3.33792        1.72771       -4.17427
H          1.78212        1.79726       -3.31573
C          3.39194        2.90713       -2.35371
C          2.46904        3.81487       -1.53754
H          1.55034        3.29305       -1.25892
H          2.97080        4.15398       -0.62535
H          2.19905        4.69210       -2.13442
C          4.63392        3.68801       -2.77892
H          5.16640        4.07799       -1.90485
H          5.31708        3.05082       -3.35073
H          4.34082        4.53198       -3.40908
N          3.87859        1.78997       -1.51777
H          4.88207        1.72486       -1.38587
C          3.13530        0.81949       -0.97250
O          1.89773        0.76691       -1.05553
C          3.93337       -0.29053       -0.28488
C          4.10966       -1.42323       -1.30495
H          3.11651       -1.72046       -1.66067
H          4.66368       -1.03521       -2.16764
C          4.85886       -2.60713       -0.69160
C          5.04564       -3.76366       -1.68101
H          5.49820       -3.38739       -2.60666
H          5.75601       -4.47978       -1.24594
C          3.73776       -4.49955       -1.98366
H          3.04793       -3.83558       -2.52086
H          3.93653       -5.34926       -2.64611
C          3.07323       -4.97579       -0.69071
H          3.72751       -5.70984       -0.19958
H          2.12868       -5.48554       -0.91090
C          2.83047       -3.80316        0.26178
H          2.11651       -3.10896       -0.19978
H          2.37030       -4.15486        1.19389
C          4.13768       -3.06897        0.58547
C          3.95070       -1.87974        1.52638
H          3.39353       -2.19655        2.41572
H          4.94560       -1.53843        1.87129
N          3.23181       -0.75367        0.91273
C          3.13377        0.34479        1.87243
H          2.80424        1.24252        1.33651
H          4.11979        0.58183        2.31043
C          2.13829        0.15555        3.02475
C          0.72901       -0.28720        2.59833
C          0.52693       -1.78548        2.34301
H          1.24634       -2.13514        1.60109
H          0.72285       -2.32167        3.27997
C         -0.87479       -2.05828        1.84245
C         -1.07399       -2.66610        0.60030
H         -0.20990       -2.97608        0.01680
C         -2.35954       -2.87098        0.09955
H         -2.49340       -3.34140       -0.87056
C         -3.46897       -2.45680        0.83325
H         -4.47157       -2.59758        0.43730
C         -3.28307       -1.84404        2.07246
H         -4.14221       -1.51322        2.64897
C         -1.99760       -1.65010        2.57282
H         -1.86601       -1.16778        3.53868
N          0.31487        0.49363        1.44604
H          0.83408        0.37770        0.57236
C         -0.58666        1.47668        1.53112
O         -1.24479        1.74510        2.54412
C         -0.83340        2.24214        0.23213
C         -0.85413        3.73930        0.49888
H         -1.08516        4.28553       -0.42005
H         -1.63686        3.97097        1.23155
C          0.46979        4.21651        1.06841
O          1.27452        3.44804        1.61372
N          0.70593        5.52868        0.95163
H          1.55234        5.91887        1.34835
H          0.04595        6.14808        0.50012
N         -2.11113        1.79553       -0.30215
H         -2.96018        2.09812        0.16786
C         -2.19323        0.64807       -1.00738
O         -1.21435        0.04700       -1.45480
C         -3.59257        0.14150       -1.24847
C         -3.78234       -0.87219       -2.21861
H         -2.93393       -1.23292       -2.78775
C         -5.04477       -1.36998       -2.39601
H         -5.24727       -2.14671       -3.12823
C         -6.10816       -0.86824       -1.60363
C         -7.44014       -1.34499       -1.71329
H         -7.65594       -2.12735       -2.43536
C         -8.42823       -0.82331       -0.91753
H         -9.44616       -1.18993       -1.00180
C         -8.13050        0.19773        0.02093
H         -8.92530        0.59829        0.64207
C         -6.85254        0.67887        0.14820
H         -6.60681        1.45952        0.86107
C         -5.81055        0.15557       -0.66148
N         -4.55036        0.65171       -0.50767
O          2.04810        1.41262        3.69416
H          1.70439        2.06119        3.04796
H          4.93339        0.10161       -0.01681
H          5.85280       -2.23978       -0.39735
H          4.79384       -3.78187        1.10542
H          2.51753       -0.55220        3.76918
H          0.06967        0.00921        3.41767
H         -0.06368        1.99343       -0.50108
