43
id_483_ca.log	Energy: -601124.7994882
C         -4.29992        1.57566        1.30340
H         -4.60987        1.13622        0.35551
H         -4.70316        2.58124        1.41347
H         -4.60557        0.94529        2.13663
N         -2.81331        1.66810        1.29917
H         -2.48510        2.04701        2.19619
C         -2.28899        2.51028        0.17897
H         -2.61786        2.02361       -0.74008
H         -2.77835        3.48155        0.26417
C         -0.77580        2.66593        0.22432
H         -0.47441        3.30188        1.06267
H         -0.48641        3.17823       -0.69881
C         -0.00800        1.34357        0.33424
C          1.44559        1.52257       -0.04554
C          2.40548        1.70903        0.94963
H          2.10458        1.69343        1.99445
C          3.74239        1.90270        0.60612
H          4.48467        2.04475        1.38542
C          4.12469        1.90291       -0.73376
H          5.16672        2.04613       -1.00212
C          3.16643        1.71385       -1.72962
H          3.46136        1.70983       -2.77436
C          1.82963        1.52761       -1.38790
H          1.08155        1.37538       -2.16133
O         -0.69649        0.42982       -0.53272
C         -0.54086       -0.90643       -0.35096
C          0.58790       -1.49115        0.21635
H          1.40799       -0.87365        0.55521
C          0.64436       -2.88389        0.31957
C         -0.41164       -3.69057       -0.13403
H         -0.32901       -4.76722       -0.04003
C         -1.53386       -3.09880       -0.67599
H         -2.36755       -3.70467       -1.01420
C         -1.61399       -1.70267       -0.78317
C         -2.79114       -1.05454       -1.26791
N         -3.75024       -0.51764       -1.64250
O          1.70161       -3.53984        0.84706
C          2.80027       -2.76383        1.31822
H          3.52931       -3.48062        1.69355
H          2.48665       -2.09723        2.12760
H          3.24134       -2.17861        0.50507
H         -0.07071        0.95215        1.35868
H         -2.42759        0.71889        1.21925
