38
id_479_cb.log	Energy: -817377.5784293
C          4.13898       -1.72586        0.64881
H          4.06978       -0.96084        1.43914
H          5.16476       -1.71332        0.26619
H          3.95928       -2.70441        1.10154
N          3.20199       -1.50879       -0.44777
H          2.26214       -1.57841       -0.06174
C          3.36172       -0.16013       -0.99182
H          3.42160        0.60125       -0.19544
H          4.32222       -0.12325       -1.51932
C          2.26382        0.22311       -1.97737
H          2.16956       -0.54602       -2.75200
H          2.55118        1.15496       -2.47627
C          0.87374        0.46661       -1.38139
C          0.87284        1.49012       -0.26602
C          0.69288        2.83899       -0.57424
H          0.51117        3.13206       -1.60574
C          0.74163        3.80353        0.43016
H          0.59834        4.85036        0.18076
C          0.96255        3.42279        1.75241
H          0.99495        4.17245        2.53692
C          1.13752        2.07546        2.06579
H          1.30811        1.77367        3.09459
C          1.09429        1.11155        1.06124
H          1.23320        0.06030        1.30800
O          0.40082       -0.80688       -0.90459
C         -0.85960       -0.91101       -0.43131
C         -1.88437       -0.00074       -0.68742
H         -1.71549        0.89283       -1.27602
C         -3.14619       -0.26537       -0.16681
C         -3.43123       -1.39019        0.60212
H         -4.42887       -1.55854        0.98933
C         -2.40151       -2.28060        0.86815
H         -2.57922       -3.16100        1.47588
C         -1.12140       -2.04274        0.36334
C         -0.03297       -2.91978        0.67386
N          0.85795       -3.61422        0.93806
Cl        -4.42726        0.87101       -0.49677
H          0.21831        0.80245       -2.19302
