15
id_415_ca.log	Energy: -240140.3557673
C         -2.13392        1.12702       -0.22568
H         -1.29616        1.51196       -0.81973
H         -3.05830        1.38335       -0.75201
H         -2.13380        1.65160        0.73624
C         -2.02241       -0.38067       -0.02054
H         -2.88268       -0.74841        0.54708
H         -2.02820       -0.89862       -0.98557
C         -0.75652       -0.76683        0.75115
H         -0.72367       -0.27903        1.72906
H         -0.71169       -1.85060        0.90954
C          0.47286       -0.40559       -0.02552
O          0.70117       -0.64523       -1.19321
O          1.37584        0.25625        0.74006
O          2.55919        0.58367        0.03194
H          2.38467        0.22863       -0.87137
