47
id_459_ca.log	Energy: -1390600.1337327
C          5.54513        3.48933        0.22190
H          6.44276        3.76227       -0.33840
H          4.68419        3.95286       -0.26992
H          5.61618        3.83799        1.25124
C          5.36771        2.00725        0.20238
O          5.18672        1.31651        1.19581
O          5.41631        1.50341       -1.03239
C          5.20686        0.08574       -1.19760
H          5.47083       -0.09294       -2.24266
H          5.90303       -0.46606       -0.56576
C          3.75964       -0.28310       -0.99121
C          3.35330       -1.23730       -0.13426
N          2.02354       -1.68423       -0.15044
C          0.98532       -1.27133       -1.09615
C         -0.06537       -1.73460       -0.04475
C          1.14065       -1.90894        0.88140
O          1.30538       -2.10529        2.06406
N         -1.05306       -0.80585        0.42094
H         -0.86540       -0.23750        1.24209
C         -2.11405       -0.51543       -0.35856
O         -2.32370       -1.07966       -1.43287
C         -3.02882        0.57245        0.14315
N         -2.40885        1.59775        0.60243
O         -3.23202        2.61297        0.99178
C         -2.45836        3.68411        1.54088
H         -1.90983        3.34026        2.42132
H         -1.77026        4.07474        0.78719
H         -3.18443        4.44690        1.82207
C         -4.47631        0.36040        0.01497
C         -5.43095        1.32240       -0.12400
H         -5.31839        2.39499       -0.17810
S         -6.99109        0.58549       -0.23622
C         -6.23096       -0.98359       -0.05286
N         -4.93548       -0.94956        0.05926
N         -6.97251       -2.13121       -0.11031
H         -6.49385       -2.94571        0.26385
H         -7.93670       -2.06661        0.19933
S          1.08474        0.51276       -1.39810
C          2.82138        0.41988       -1.94470
H          3.15131        1.45546       -2.07206
H          2.87141       -0.05912       -2.92967
C          4.20978       -2.00372        0.83896
O          4.06511       -3.20151        0.98844
O          5.10664       -1.33567        1.54702
H          5.07409       -0.35186        1.40109
H          1.00970       -1.82985       -2.03269
H         -0.52379       -2.68337       -0.33480
