77
id_485_cb.log	Energy: -1250111.0874345
C         -0.07209        2.74698       -0.66746
H         -0.09460        3.37183       -1.55919
H         -0.28637        1.70346       -0.93492
H          0.92457        2.80181       -0.22200
N         -1.01717        3.26121        0.33499
C         -0.92631        2.52239        1.60309
H          0.07614        2.68549        2.00405
H         -1.65523        2.90806        2.31623
H         -1.07922        1.44350        1.45718
S         -2.57853        3.43983       -0.21982
O         -2.48696        4.06155       -1.54034
O         -3.32644        4.12292        0.83501
C         -3.27408        1.81932       -0.41213
C         -3.02794        1.10622       -1.58415
H         -2.47199        1.55793       -2.40011
C         -3.51233       -0.19437       -1.69173
H         -3.31246       -0.76880       -2.59218
C         -4.22932       -0.77748       -0.64472
C         -4.48705       -0.03038        0.51049
H         -5.05104       -0.47835        1.32470
C         -4.00514        1.26573        0.63958
H         -4.19579        1.84136        1.53943
C         -4.68190       -2.22011       -0.71468
H         -4.29701       -2.69900       -1.61862
H         -5.77302       -2.27147       -0.74524
C         -4.27338       -2.98357        0.54226
O         -5.14225       -3.33285        1.35404
N         -2.96524       -3.22951        0.77642
C         -2.63865       -3.81315        2.07558
H         -3.15102       -3.26766        2.87164
H         -2.94513       -4.86215        2.12384
H         -1.56465       -3.75168        2.24324
C         -1.87042       -2.78193       -0.09214
H         -2.31105       -2.51715       -1.05630
C         -1.15177       -1.54910        0.45443
H         -0.67819       -1.79147        1.41426
H         -1.86154       -0.73288        0.62763
C         -0.08781       -1.08882       -0.53384
H          0.42074       -0.21648       -0.11385
H         -0.57689       -0.76225       -1.47485
N          0.89519       -2.14062       -0.79588
C          0.22279       -3.33101       -1.32409
H          0.98083       -4.09755       -1.51550
H         -0.25456       -3.09817       -2.29571
C         -0.83814       -3.87557       -0.37162
H         -1.32044       -4.74703       -0.82608
H         -0.35732       -4.19941        0.55758
C          1.89267       -1.70628       -1.78219
H          1.43973       -1.66957       -2.79019
H          2.67930       -2.47043       -1.81560
C          2.50664       -0.33806       -1.50525
H          1.75298        0.44364       -1.65774
H          3.28363       -0.16302       -2.25855
C          3.10298       -0.19141       -0.09336
H          2.40201       -0.64393        0.61567
C          4.41056       -0.95700        0.04658
C          4.50330       -2.03678        0.92783
H          3.63341       -2.31902        1.51609
C          5.69262       -2.75390        1.05994
H          5.74355       -3.59063        1.75031
C          6.80926       -2.39747        0.30888
H          7.73684       -2.95252        0.40973
C          6.72815       -1.32111       -0.57532
H          7.59425       -1.03575       -1.16506
C          5.53903       -0.60933       -0.70548
H          5.48942        0.22880       -1.39678
C          3.23414        1.26970        0.30423
C          2.88365        1.66491        1.59875
H          2.54307        0.91387        2.30828
C          2.95166        3.00329        1.98387
H          2.66765        3.28941        2.99251
C          3.37368        3.97095        1.07373
H          3.42219        5.01477        1.36802
C          3.73035        3.58854       -0.21869
H          4.05730        4.33544       -0.93600
C          3.65865        2.25006       -0.60051
H          3.91938        1.97158       -1.61835
