49
id_463_cb.log	Energy: -1294960.7204074
C         -7.12315        0.33107       -1.43401
H         -7.96849        0.47051       -2.10113
C         -6.43177        1.44276       -0.95135
H         -6.73613        2.44396       -1.23962
C         -5.34494        1.27229       -0.09559
H         -4.79465        2.12660        0.28667
C         -4.97942       -0.02303        0.26430
C         -5.65614       -1.14670       -0.20886
H         -5.35002       -2.14523        0.09020
C         -6.73784       -0.95956       -1.06600
H         -7.28085       -1.82076       -1.44216
S         -3.57259       -0.26501        1.32465
O         -3.83883       -1.43393        2.18761
O         -3.27082        1.01805        1.98934
C         -2.21071       -0.69395        0.22232
H         -2.55262       -1.61392       -0.27105
C         -1.95412        0.40344       -0.80627
H         -2.81846        0.53357       -1.46546
H         -1.76171        1.35441       -0.29588
C         -0.74286        0.01764       -1.64992
H         -0.53297        0.81730       -2.36590
H         -0.97885       -0.89532       -2.22928
N          0.45081       -0.19724       -0.82708
C          0.20241       -1.28834        0.11856
H          1.10146       -1.45465        0.71741
H         -0.01264       -2.22661       -0.42853
C         -0.95873       -0.96847        1.05526
H         -1.11956       -1.81275        1.73160
H         -0.71156       -0.08498        1.65526
C          1.56824       -0.54099       -1.71777
H          1.37361       -1.50843       -2.21342
H          1.61524        0.22338       -2.49900
C          2.89914       -0.61943       -1.01304
C          3.44215       -1.85491       -0.66924
H          2.89587       -2.76226       -0.91474
C          4.66976       -1.92807       -0.01776
C          5.37831       -0.77892        0.29989
H          6.33371       -0.84008        0.81124
C          4.85130        0.46577       -0.04506
H          5.41719        1.35549        0.20838
C          3.62092        0.54812       -0.70130
O          3.05144        1.72405       -1.09625
C          3.74352        2.93131       -0.82439
H          3.20781        3.70354       -1.38263
H          4.77008        2.88760       -1.20368
C          3.74414        3.33655        0.65697
O          4.49027        4.31510        0.93603
O          3.00423        2.70856        1.45432
Cl         5.32573       -3.49791        0.40459
