62
id_487_ca.log	Energy: -1105556.6281574
C         -4.16306       -3.83581       -0.32904
H         -4.02771       -4.87790       -0.03463
H         -4.64684       -3.81474       -1.31072
H         -4.83491       -3.35740        0.38979
C         -2.83511       -3.15713       -0.36375
C         -1.56760       -3.63600       -0.09518
H         -1.31183       -4.64150        0.20662
C         -0.70777       -2.53254       -0.28912
N         -1.39702       -1.45139       -0.65738
N         -2.67684       -1.85184       -0.70894
C         -3.70653       -0.86937       -0.98746
H         -3.37395       -0.25426       -1.82751
H         -4.62047       -1.39410       -1.27977
C         -3.96652        0.00472        0.23376
C         -4.91141        1.14105       -0.12251
H         -5.89863        0.75846       -0.38987
H         -4.52357        1.76221       -0.92984
N         -5.08111        2.00715        1.07950
H         -4.21275        2.51486        1.29124
H         -5.31646        1.42621        1.89456
O         -4.47378       -0.73689        1.32906
H         -5.30131       -1.16295        1.04426
C          0.75231       -2.46211       -0.12634
C          1.52526       -3.61220        0.05424
H          1.05541       -4.59095        0.05884
C          2.90405       -3.52355        0.21956
H          3.49997       -4.42088        0.34649
C          3.52210       -2.27843        0.21759
C          2.77596       -1.11304        0.03134
C          1.39771       -1.22332       -0.14193
H          0.80776       -0.31894       -0.26470
C          3.35382        0.27237        0.11812
O          4.03300        0.63140        1.08024
N          3.00755        1.08535       -0.90260
H          2.42020        0.69261       -1.62923
C          3.06753        2.53188       -0.80289
H          3.83611        2.79194       -0.07269
H          3.35852        2.94671       -1.77207
C          1.72000        3.15147       -0.38572
C          1.38929        2.75658        1.05823
H          1.47532        1.66710        1.15829
H          2.17021        3.19622        1.69122
C          0.00402        3.15215        1.58656
H          0.02004        3.00455        2.67141
H         -0.19213        4.22277        1.43289
C         -1.12911        2.30860        0.98633
H         -1.94653        2.22334        1.71302
H         -0.75031        1.28632        0.84323
C         -1.70353        2.83246       -0.34039
H         -2.15022        1.98990       -0.88535
H         -2.52090        3.53612       -0.13444
C         -0.69052        3.52230       -1.25962
H         -0.49458        4.54151       -0.90604
H         -1.14979        3.64054       -2.24660
C          0.63791        2.77191       -1.41471
H          1.06164        2.98592       -2.40383
H          0.44971        1.69004       -1.37678
O          1.97940        4.55745       -0.46177
H          1.29267        5.01769        0.04616
Cl         5.25736       -2.20764        0.40083
H         -3.01168        0.41804        0.57746
H         -5.82798        2.69792        0.94763
