38
id_444_cb.log	Energy: -648692.1583352
C          1.47408        4.00938       -0.04930
H          1.98384        3.60552        0.83054
H          0.70406        4.72337        0.24840
H          2.23012        4.52528       -0.65511
C          0.88670        2.90906       -0.88729
O         -0.20646        3.03247       -1.42929
C          1.68887        1.64133       -1.03526
H          1.40349        1.14456       -1.96758
H          2.75481        1.89432       -1.06616
C          1.41351        0.71435        0.17520
C          2.31920       -0.51182        0.21324
C          3.21984       -0.84115       -0.80237
H          3.28705       -0.22705       -1.69597
C          4.03518       -1.97139       -0.69591
H          4.72425       -2.21177       -1.50101
C          3.96489       -2.78833        0.43062
H          4.59888       -3.66656        0.51238
C          3.07057       -2.46576        1.45436
H          3.00775       -3.09083        2.34101
C          2.25900       -1.33943        1.34283
H          1.56395       -1.09180        2.14341
C         -0.05430        0.35351        0.27875
C         -0.64275       -0.57948       -0.60308
C         -2.08596       -0.85207       -0.41193
C         -2.77529       -1.79956       -1.18258
H         -2.22636       -2.34823       -1.94212
C         -4.12751       -2.03117       -0.97654
H         -4.65227       -2.76841       -1.57613
C         -4.81629       -1.30931        0.00919
H         -5.87507       -1.48664        0.17301
C         -4.15482       -0.36419        0.78123
H         -4.66798        0.20820        1.54793
C         -2.79376       -0.14622        0.56007
O         -2.18499        0.80052        1.33804
C         -0.83361        1.08443        1.20438
O         -0.44222        1.99929        1.94941
O         -0.01384       -1.17863       -1.52107
H          1.65818        1.28786        1.07688
