41
id_457_cb.log	Energy: -938226.0343339
C         -2.43232       -3.22842       -0.46166
H         -3.48272       -3.49650       -0.59581
H         -2.07572       -3.71387        0.45449
H         -1.86292       -3.65468       -1.29581
C         -2.25206       -1.74590       -0.38533
C         -3.20303       -0.78356       -0.48207
C         -2.55803        0.53085       -0.32968
C         -3.14053        1.79317       -0.29772
H         -4.20826        1.95456       -0.42216
C         -2.28652        2.86605       -0.07562
C         -0.92174        2.73390        0.12596
H         -0.31725        3.61526        0.31349
C         -0.35313        1.45477        0.08560
H          0.71301        1.35337        0.25677
C         -1.16601        0.35286       -0.16197
C         -0.92044       -1.11156       -0.21311
C          0.21694       -1.82880       -0.11038
H          0.11713       -2.91314       -0.05595
C          1.60542       -1.33711       -0.06619
C          2.50626       -1.90375        0.84965
H          2.16036       -2.67429        1.53348
C          3.83302       -1.48944        0.89119
H          4.52177       -1.93290        1.60672
C          4.26122       -0.50827       -0.00230
C          3.40129        0.04133       -0.94637
H          3.76715        0.77816       -1.65547
C          2.07338       -0.37785       -0.97400
H          1.39683        0.03120       -1.71944
S          5.98364        0.01503        0.04318
O          6.19984        0.90263       -1.18770
C          5.84154        1.15552        1.43579
H          6.82334        1.61194        1.58222
H          5.55420        0.59088        2.32677
H          5.09194        1.91248        1.19140
F         -2.82256        4.11294       -0.03951
C         -4.67408       -0.92055       -0.69000
H         -4.94129       -1.95079       -0.95049
H         -4.99878       -0.29224       -1.52813
C         -5.53385       -0.54153        0.53195
O         -6.75714       -0.31824        0.30423
O         -4.98995       -0.50771        1.66849
