33
id_449_ca.log	Energy: -422260.7785369
C          3.36457       -0.96536       -1.11482
H          4.29398       -0.78946       -0.57038
H          3.53328       -0.89111       -2.18862
H          2.95520       -1.94484       -0.87563
N          2.39064        0.09541       -0.72198
H          1.49755       -0.12319       -1.18272
C          2.83515        1.42086       -1.24697
H          3.11365        1.29555       -2.29274
H          3.69514        1.74856       -0.66041
H          2.01724        2.13490       -1.17020
C          2.16047        0.11895        0.78141
C          1.64159       -1.22930        1.27613
H          2.38367       -2.02254        1.16292
H          1.47291       -1.10694        2.35082
C          0.33126       -1.62315        0.58837
H         -0.14909       -2.41054        1.18239
H          0.54467       -2.07522       -0.39311
C         -0.62102       -0.45833        0.39973
C         -0.24066        0.87247        0.65065
C         -1.15214        1.90704        0.42824
H         -0.84747        2.93339        0.61653
C         -2.44174        1.64480       -0.02797
H         -3.15585        2.44506       -0.19845
C         -2.82044        0.33379       -0.28392
C         -1.90943       -0.70639       -0.08180
O         -2.37887       -1.96135       -0.39118
O         -4.08631        0.07171       -0.74879
H         -4.18791       -0.88837       -0.87403
C          1.14712        1.19017        1.16823
H          1.14350        1.21266        2.26465
H          1.45395        2.18870        0.84833
H          3.14271        0.34431        1.20605
H         -1.68863       -2.63499       -0.27541
