24
id_45_ca.log	Energy: -369676.9068337
C          1.78069       -2.42445       -0.00001
H          2.30153       -3.37640       -0.00002
C          2.49655       -1.25238       -0.00001
H          3.58211       -1.26413       -0.00002
C          1.82499       -0.00000       -0.00000
C          2.49655        1.25239       -0.00001
H          3.58211        1.26412       -0.00002
C          1.78069        2.42445       -0.00001
H          2.30152        3.37640       -0.00001
C          0.36608        2.42794        0.00000
H         -0.18992        3.35975       -0.00000
C         -0.29818        1.22739        0.00001
C          0.40863       -0.00000        0.00001
C         -0.29818       -1.22739        0.00001
C          0.36609       -2.42794       -0.00000
H         -0.18993       -3.35975       -0.00000
N         -1.70260       -1.15611        0.00003
H         -2.23352       -2.02370        0.00001
C         -2.37996       -0.00000        0.00000
N         -1.70260        1.15611        0.00002
N         -3.70180        0.00000       -0.00003
H         -4.21749        0.87278       -0.00006
H         -4.21749       -0.87278       -0.00007
H         -2.23352        2.02370       -0.00000
