33
id_448_ca.log	Energy: -422261.5310079
C          2.85575        1.43322       -1.22563
H          3.70582        1.75998       -0.62421
H          2.03421        2.14373       -1.15541
H          3.15005        1.31696       -2.26807
N          2.40921        0.10243       -0.71675
H          1.52109       -0.11489       -1.18778
C          3.38970       -0.95256       -1.10835
H          3.57028       -0.86831       -2.17948
H          2.97970       -1.93484       -0.88223
H          4.31258       -0.77952       -0.55192
C          2.16443        0.11217        0.78468
C          1.64332       -1.24261        1.26084
H          2.39061       -2.03138        1.14864
H          1.46410       -1.13078        2.33526
C          0.34132       -1.63183        0.55629
H          0.55697       -2.06012       -0.43426
H         -0.14832       -2.43308        1.11943
C         -0.61275       -0.46787        0.38732
C         -0.23812        0.86240        0.64517
C         -1.15499        1.89371        0.42902
H         -0.85711        2.92140        0.62077
C         -2.44514        1.62562       -0.02495
H         -3.16190        2.42611       -0.18898
C         -2.81842        0.31165       -0.27780
C         -1.90210       -0.72433       -0.08203
O         -2.25548       -2.02286       -0.35289
H         -3.17722       -2.04273       -0.66556
O         -4.05948       -0.06635       -0.73333
C          1.14681        1.18028        1.17011
H          1.13604        1.19692        2.26666
H          1.45465        2.18094        0.85780
H          3.14229        0.33614        1.22012
H         -4.63737        0.71109       -0.81177
