37
id_476_cb.log	Energy: -1450743.7110870
C         -6.71393        0.87884        0.62513
H         -7.15680        0.88844       -0.37398
H         -7.11064        1.73010        1.18410
H         -7.00835       -0.03784        1.14230
C         -5.19957        1.01669        0.56202
H         -4.73265        0.98910        1.55127
H         -4.88015        1.92094        0.03500
S         -4.48412       -0.34999       -0.34855
O         -4.93694       -0.27503       -1.75028
O         -4.74343       -1.59949        0.39076
C         -2.73045       -0.04319       -0.31948
C         -2.16472        0.75786       -1.30614
H         -2.77000        1.16781       -2.10867
C         -0.79821        1.01027       -1.24848
H         -0.32966        1.62184       -2.01375
C         -0.00003        0.48139       -0.22713
C         -0.61817       -0.30327        0.75552
C         -1.98061       -0.57672        0.72329
H         -2.44174       -1.18878        1.49243
Cl         0.31022       -0.92761        2.09049
C          1.45533        0.78868       -0.20902
C          1.87615        2.09761        0.01685
H          1.13951        2.87182        0.21172
C          3.23369        2.40049       -0.00662
C          4.18057        1.41861       -0.26080
H          5.23816        1.66170       -0.27751
C          3.76650        0.10879       -0.49853
H          4.51987       -0.64384       -0.70283
C          2.40761       -0.21251       -0.47603
O          1.91345       -1.45559       -0.72736
C          2.81066       -2.45552       -1.18911
H          2.17482       -3.26446       -1.55770
H          3.40686       -2.07876       -2.02737
C          3.73466       -3.03805       -0.10990
O          4.61981       -3.82306       -0.54803
O          3.53721       -2.72932        1.09115
Cl         3.74971        4.04772        0.28494
