61
id_495_cb.log	Energy: -1362530.0166429
C         -1.79081        3.98818       -1.92789
H         -1.97161        3.63477       -2.94748
H         -1.07313        4.81170       -1.96456
H         -2.74088        4.36402       -1.53688
C         -1.25343        2.89178       -1.06757
C         -1.88842        1.69396       -0.64562
C         -0.94643        1.03358        0.14876
N          0.15067        1.84770        0.17231
N         -0.03033        2.97677       -0.56569
C          1.38285        1.65072        0.85691
C          1.38547        1.26851        2.19924
H          0.44793        1.11767        2.72265
C          2.59685        1.08387        2.86086
H          2.63287        0.77991        3.90189
C          3.77110        1.30683        2.15888
C          3.79363        1.71272        0.83466
H          4.74028        1.87216        0.32748
C          2.57839        1.87756        0.17530
H          2.55858        2.17093       -0.86950
F          4.95254        1.11630        2.79525
N         -1.02284       -0.16171        0.84528
S         -0.69709       -1.47161        0.00668
O         -1.36415       -1.52544       -1.31592
O         -0.94252       -2.63379        0.88560
C          1.06015       -1.46395       -0.35457
C          1.94919       -1.76995        0.67510
H          1.58005       -2.07243        1.65090
C          3.31578       -1.66670        0.44474
H          4.01999       -1.89066        1.24004
C          3.76707       -1.24864       -0.80780
C          2.87740       -0.95198       -1.83706
H          3.24315       -0.62536       -2.80588
C          1.50659       -1.05713       -1.60844
H          0.79805       -0.81970       -2.39541
C          5.24098       -1.10815       -1.05488
F          5.76801       -2.20233       -1.64669
F          5.93619       -0.91774        0.08071
F          5.52258       -0.06981       -1.86448
C         -3.26466        1.27010       -0.95611
O         -3.90279        1.78357       -1.89952
N         -3.80170        0.34130       -0.14434
H         -3.16708       -0.08890        0.52534
C         -5.07295       -0.32632       -0.42735
C         -4.89234       -1.34066       -1.56015
H         -4.29031       -2.19682       -1.23890
H         -4.38258       -0.86457       -2.40373
H         -5.85898       -1.70787       -1.91633
C         -5.66252       -0.91486        0.87869
C         -5.98294        0.22872        1.84807
H         -6.43182       -0.16917        2.76549
H         -6.69414        0.93328        1.39968
H         -5.08190        0.78408        2.12919
C         -4.69707       -1.89402        1.56045
H         -5.19516       -2.35622        2.42073
H         -3.79819       -1.39569        1.94341
H         -4.38290       -2.69880        0.88691
C         -6.96447       -1.65248        0.54381
H         -6.77820       -2.57024       -0.02367
H         -7.63941       -1.01689       -0.04299
H         -7.48054       -1.93168        1.46932
H         -5.76601        0.45125       -0.77003
