44
id_439_cb.log	Energy: -543846.1921642
C         -0.01752        3.17925       -0.54981
H          0.27531        2.99094       -1.58684
H          0.65417        3.93830       -0.13270
H         -1.03279        3.58737       -0.55923
C          0.03252        1.91478        0.29957
H         -0.59031        1.14110       -0.19071
C         -0.52670        2.16926        1.69300
H         -1.56659        2.50589        1.63946
H          0.05951        2.94248        2.20219
H         -0.49476        1.25731        2.30121
N          1.41562        1.42670        0.43634
H          1.35524        0.62763        1.06906
C          1.97636        0.94587       -0.82732
H          1.29131        0.27898       -1.37393
H          2.17400        1.80594       -1.47498
C          3.30919        0.24388       -0.59213
C          3.22641       -1.03520        0.24972
H          2.92251       -0.80507        1.27614
H          4.22088       -1.48403        0.29697
O          2.37872       -2.01907       -0.34345
C          1.02381       -1.93930       -0.09420
C          0.16960       -2.15946       -1.17452
H          0.60058       -2.36219       -2.15020
C         -1.20704       -2.08320       -0.99577
H         -1.86562       -2.23392       -1.84726
C         -1.75801       -1.78718        0.25449
C         -0.88788       -1.60691        1.33206
H         -1.29497       -1.39712        2.31881
C          0.49486       -1.69153        1.17315
H          1.14674       -1.56454        2.03211
C         -3.24097       -1.57255        0.41974
H         -3.58613       -1.97436        1.37825
H         -3.78996       -2.08604       -0.37653
C         -3.58770       -0.08943        0.38021
H         -3.07373        0.44234        1.19731
H         -4.67032        0.05640        0.50946
O         -3.17449        0.44007       -0.86615
C         -3.47751        1.81660       -0.97187
H         -3.03378        2.38405       -0.14269
H         -4.56354        1.98265       -0.96693
H         -3.06235        2.17464       -1.91648
O          4.22183        1.12652        0.04990
H          3.69157        1.61015        0.70798
H          3.73884       -0.01527       -1.56520
