45
id_426_cb.log	Energy: -693458.0213605
C          6.20477        3.01371        0.58272
H          5.77276        3.43139       -0.33189
H          7.09637        3.57612        0.85782
H          5.47214        3.06382        1.39426
O          6.63795        1.67388        0.37287
C          5.70083        0.76497        0.01239
C          6.15542       -0.55129       -0.18521
H          7.20181       -0.79783       -0.05100
C          5.22107       -1.49750       -0.54377
H          5.53500       -2.52703       -0.69905
N          3.91021       -1.25769       -0.72425
C          3.49594        0.00077       -0.53807
C          4.35791        1.05326       -0.16134
H          3.95371        2.04846       -0.01861
N          2.16697        0.29011       -0.78504
H          1.86763        1.16944       -0.37255
C          1.14914       -0.75121       -0.69055
H          1.48804       -1.59766       -1.29555
C         -0.16232       -0.23132       -1.27641
H         -0.02807        0.02687       -2.33155
H         -0.46654        0.67993       -0.74149
C         -1.27547       -1.27091       -1.14434
H         -1.02807       -2.17009       -1.71775
H         -2.21285       -0.87625       -1.53118
N         -1.43109       -1.67419        0.26095
C         -0.19867       -2.25570        0.80534
H         -0.38891       -2.59324        1.82282
H          0.04608       -3.12899        0.19154
C          0.93527       -1.23482        0.74866
H          0.67805       -0.37562        1.38236
H          1.85742       -1.67823        1.13730
C         -2.22807       -0.99296        1.12419
O         -2.01324       -0.94640        2.34008
C         -3.45728       -0.31330        0.58625
C         -4.35566       -0.96724       -0.26139
H         -4.14930       -1.97711       -0.60189
C         -5.52310       -0.33083       -0.66095
H         -6.23254       -0.83076       -1.31126
C         -5.77984        0.97035       -0.21488
C         -4.88819        1.63035        0.63777
H         -5.10601        2.63743        0.97609
C         -3.73425        0.97602        1.04595
H         -3.03942        1.46447        1.72132
C         -6.98153        1.63734       -0.63565
N         -7.95050        2.17561       -0.97560
