16
id_403_cb.log	Energy: -467070.1545108
C          2.43399        2.66636        0.00000
H          3.47727        2.98272        0.00000
H          1.93410        3.05224        0.89541
H          1.93410        3.05224       -0.89541
O          2.45376        1.24596        0.00000
C          1.23229        0.60421        0.00000
C          1.26458       -0.79349        0.00000
H          2.22723       -1.29909        0.00000
C          0.08122       -1.52287        0.00000
H          0.13455       -2.60887        0.00000
C         -1.18807       -0.90124        0.00000
C         -1.18060        0.50497        0.00000
H         -2.12975        1.03545        0.00000
C          0.00000        1.25628        0.00000
H         -0.06324        2.33944        0.00000
S         -2.68780       -1.83795        0.00000
