45
id_407_ca.log	Energy: -1145978.5658005
C          5.00531       -2.60537       -0.84360
H          5.13194       -3.08819        0.12522
H          5.94143       -2.62638       -1.39769
H          4.22132       -3.10112       -1.41450
N          4.67245       -1.19090       -0.66320
C          3.55511       -0.61730       -0.15200
C          3.72776        0.76341       -0.19034
C          5.00518        0.91771       -0.74761
H          5.53103        1.83618       -0.96826
N          5.55625       -0.26299       -1.02237
C          2.79472        1.81752        0.18084
N          3.16387        3.02606        0.65269
N          2.05236        3.69462        0.82659
N          1.07480        2.90188        0.46829
N          1.47603        1.72132        0.05330
C         -0.33157        3.28496        0.51507
H         -0.85005        2.62149        1.20748
H         -0.74708        3.20001       -0.48934
H         -0.37741        4.31503        0.86358
S          2.21842       -1.50853        0.56708
O          2.51519       -2.93151        0.56576
O          1.87437       -0.87226        1.83233
N          1.01173       -1.19745       -0.57426
H          1.20462       -0.35074       -1.11498
C         -0.30886       -1.36004       -0.10525
O         -0.58765       -2.27260        0.65187
N         -1.16156       -0.41515       -0.59727
H         -0.75781        0.44213       -0.96865
C         -2.54820       -0.35182       -0.40626
N         -3.21966       -1.46469       -0.19162
C         -4.54796       -1.31520       -0.04317
C         -5.18668       -0.08676       -0.12033
H         -6.25219        0.05486       -0.00295
C         -4.34352        1.00254       -0.36479
N         -3.02907        0.89060       -0.51242
O         -4.91083        2.21121       -0.44039
C         -4.05078        3.34541       -0.62250
H         -3.34634        3.42439        0.20890
H         -4.71795        4.20597       -0.63595
H         -3.51175        3.26911       -1.56876
O         -5.17966       -2.47634        0.17708
C         -6.60145       -2.44356        0.33220
H         -6.90125       -3.47850        0.48728
H         -7.07359       -2.04814       -0.57129
H         -6.87589       -1.83977        1.20162
