25
id_427_cb.log	Energy: -575167.8365812
C          2.89564       -1.73157        0.04103
H          3.45055       -2.65684       -0.07870
C          2.00055       -1.58712        1.09875
H          1.85372       -2.39900        1.80425
C          1.28172       -0.40235        1.24948
H          0.56830       -0.29234        2.06100
C          1.46630        0.64547        0.34437
C          2.37040        0.50254       -0.71216
H          2.51210        1.31941       -1.41417
C          3.07836       -0.68706       -0.86508
H          3.77675       -0.79585       -1.68906
S          0.50827        2.14390        0.50937
C         -0.75104        1.81305       -0.79330
H         -1.39790        2.69352       -0.79193
H         -0.24060        1.74496       -1.75669
C         -1.54377        0.57149       -0.50767
C         -1.17978       -0.64415       -1.09081
H         -0.33895       -0.68294       -1.77726
C         -1.90309       -1.78828       -0.77148
H         -1.63990       -2.74645       -1.20863
C         -2.96728       -1.67763        0.11644
H         -3.56395       -2.53816        0.39794
C         -3.25617       -0.42213        0.64322
H         -4.08436       -0.30049        1.33686
N         -2.56844        0.68546        0.34997
