41
id_41_cb.log	Energy: -1019012.8108329
C         -0.88062        3.55479       -1.62510
H         -0.39661        4.34379       -1.03921
H         -1.94775        3.78558       -1.69369
H         -0.45756        3.56476       -2.63364
C         -0.68547        2.19385       -0.97248
C         -1.35511        2.11067        0.40057
H         -1.25254        1.09692        0.80744
H         -2.41975        2.34219        0.29661
O         -0.82349        3.06041        1.32105
H          0.07121        2.77364        1.56717
N          0.75095        1.92544       -0.86352
H          1.31603        2.72447       -0.59792
C          1.25798        0.69468       -0.60784
C          2.61281        0.50987       -0.19986
C          3.56143        1.54888        0.01775
H          3.29537        2.59319       -0.12544
C          4.82417        1.23060        0.40892
H          5.57479        1.99513        0.58331
C          5.20390       -0.15761        0.60386
O          6.39044       -0.44726        0.96728
N          4.29622       -1.14184        0.39942
C          3.04738       -0.82269        0.01199
N          2.18468       -1.87424       -0.16916
C          0.96882       -1.55928       -0.55823
N          0.44432       -0.35312       -0.79256
S         -0.08536       -2.97227       -0.82070
C         -1.68149       -2.18778       -1.16224
H         -1.56040       -1.49112       -1.99398
H         -2.31867       -3.00661       -1.51583
C         -2.34344       -1.49229        0.00582
C         -1.98642       -1.64960        1.34818
H         -1.15742       -2.30354        1.60133
C         -2.66795       -0.97582        2.36157
H         -2.36830       -1.11418        3.39537
C         -3.72842       -0.11995        2.06410
H         -4.27158        0.42149        2.83191
C         -4.08023        0.03766        0.73645
C         -3.40097       -0.63265       -0.26974
F         -3.79118       -0.42907       -1.54546
F         -5.08437        0.86431        0.38324
H         -1.12808        1.41469       -1.60074
