15
id_411_cb.log	Energy: -419882.9057232
C          2.62800        0.00000       -0.37173
H          3.66574        0.00000       -0.69290
C          1.95591       -1.20561       -0.16014
H          2.47171       -2.14993       -0.31385
C          0.62352       -1.20211        0.25357
H          0.10426       -2.14495        0.41619
C         -0.06600       -0.00000        0.46008
C          0.62352        1.20211        0.25357
H          0.10425        2.14495        0.41619
C          1.95591        1.20561       -0.16014
H          2.47171        2.14993       -0.31385
C         -1.51417       -0.00000        0.86474
H         -1.70887        0.88232        1.48458
H         -1.70887       -0.88232        1.48458
S         -2.66500        0.00000       -0.58254
