58
id_492_cb.log	Energy: -1088831.6603861
C          5.60673        1.52155        1.07341
H          6.19918        2.00738        1.85546
H          4.64053        2.03593        1.02115
H          6.12097        1.67161        0.11755
C          5.43325        0.03601        1.37399
H          4.94081       -0.09512        2.34735
H          6.41750       -0.44257        1.44795
C          4.62408       -0.72520        0.31685
H          5.11215       -0.61048       -0.65804
C          4.52717       -2.21246        0.65965
H          5.54252       -2.57728        0.85271
H          3.96931       -2.31893        1.60109
C          3.87367       -3.04952       -0.43453
H          4.42396       -2.95421       -1.37797
H          2.84088       -2.73445       -0.61226
H          3.85846       -4.10901       -0.15877
N          3.27927       -0.16669        0.18777
H          2.55943       -0.49296        0.83187
C          2.91557        0.76412       -0.71204
O          3.69936        1.20684       -1.57914
C          1.54350        1.28977       -0.59529
C          1.06344        2.51367       -1.13203
N         -0.18817        2.73262       -0.75574
N         -0.53999        1.66515        0.01309
C          0.47572        0.75992        0.13459
N          0.38462       -0.40876        0.87099
S         -0.04319       -1.69495        0.03501
O          0.61680       -1.79118       -1.29060
O          0.14033       -2.86957        0.91813
C         -1.79244       -1.59247       -0.32241
C         -2.23018       -1.31405       -1.61189
H         -1.51505       -1.20301       -2.42096
C         -3.60015       -1.18022       -1.85185
H         -3.94649       -0.95961       -2.85844
C         -4.52863       -1.31652       -0.81843
C         -4.05902       -1.59871        0.47469
H         -4.77160       -1.70275        1.29009
C         -2.70112       -1.73197        0.72998
H         -2.34780       -1.93626        1.73766
C         -6.00299       -1.13887       -1.06049
H         -6.21155       -0.94695       -2.11613
H         -6.38800       -0.29590       -0.47459
H         -6.56073       -2.02971       -0.75276
C         -1.81960        1.65065        0.63958
C         -2.95241        1.93290       -0.12291
H         -2.85249        2.11611       -1.18857
C         -4.20123        1.96923        0.49557
H         -5.08533        2.18641       -0.09719
C         -4.31662        1.71546        1.86291
H         -5.29196        1.73769        2.34022
C         -3.17525        1.43389        2.61564
H         -3.25770        1.24348        3.68166
C         -1.92047        1.40796        2.00987
H         -1.02518        1.20832        2.58938
C          1.77658        3.51261       -1.98348
H          2.04520        3.08380       -2.95341
H          2.70201        3.84614       -1.50432
H          1.13225        4.37988       -2.14912
