38
id_442_cb.log	Energy: -1113692.0194473
C          3.24838        4.39246       -0.97808
H          3.97008        3.97326       -1.68514
H          3.71754        5.23900       -0.47109
H          2.39254        4.76415       -1.54649
C          2.80968        3.34587        0.03739
H          2.08728        3.77791        0.74187
H          3.65480        2.98822        0.63295
C          2.12210        2.16820       -0.61962
O          1.51751        2.25927       -1.69127
N          2.19506        0.99529        0.05156
H          2.60175        0.97933        0.98023
C          1.44495       -0.17114       -0.39013
C          1.96444       -1.39700        0.31838
C          1.51558       -1.95079        1.48272
H          0.65739       -1.56822        2.02515
C          2.28733       -3.08094        1.89495
H          2.08566       -3.65869        2.78931
C          3.30609       -3.36098        1.03435
H          4.03608       -4.15756        1.09385
S          3.34292       -2.25495       -0.28885
C         -0.05652       -0.02557       -0.19061
C         -0.61621        0.97631        0.63311
H          0.04252        1.67675        1.13714
C         -1.97300        1.07736        0.80162
C         -2.86771        0.18392        0.15799
C         -4.28143        0.20891        0.26830
H         -4.76329        0.95836        0.88738
C         -5.02146       -0.72065       -0.41294
H         -6.10353       -0.73175       -0.35118
C         -4.35849       -1.68338       -1.21095
H         -4.93821       -2.42468       -1.75449
N         -3.05213       -1.74150       -1.34066
C         -2.30760       -0.82289       -0.66799
C         -0.89536       -0.91211       -0.82836
O         -0.38182       -1.88664       -1.61636
H         -1.14296       -2.38811       -1.97396
Cl        -2.61266        2.34139        1.82866
H          1.62012       -0.27540       -1.46707
