61
id_493_cb.log	Energy: -1300269.5733062
C         -6.03922       -0.92346       -1.76866
H         -6.69045       -1.39370       -1.02711
H         -6.32346       -1.29544       -2.75930
H         -6.22669        0.15565       -1.75994
C         -4.59043       -1.21276       -1.48150
C         -4.22034       -2.09332       -0.45751
H         -4.99154       -2.58616        0.12944
C         -2.88017       -2.33286       -0.16700
H         -2.60322       -3.00514        0.64072
C         -1.89736       -1.69347       -0.92055
C         -2.23756       -0.81500       -1.94782
H         -1.46263       -0.31737       -2.52357
C         -3.58343       -0.58359       -2.22249
H         -3.85592        0.10616       -3.01804
S         -0.18224       -1.91657       -0.47490
O          0.58874       -1.56377       -1.69275
O         -0.02905       -3.31362       -0.01398
N          0.13330       -0.97502        0.77402
C          0.07205        0.37672        0.51093
C          1.03419        1.24798       -0.00461
C          0.39465        2.50553       -0.01987
N         -0.83809        2.44767        0.45142
N         -1.03093        1.15494        0.77134
C         -2.28182        0.75798        1.33655
C         -3.45995        1.24632        0.77487
H         -3.41739        1.88789       -0.09994
C         -4.68225        0.89056        1.34274
H         -5.60359        1.26414        0.90502
C         -4.72259        0.04854        2.45416
H         -5.67699       -0.23286        2.88925
C         -3.53374       -0.43052        3.00733
H         -3.55886       -1.07817        3.87862
C         -2.30500       -0.07217        2.45705
H         -1.37541       -0.42489        2.88959
C          0.93919        3.83331       -0.44118
F          0.09032        4.83088       -0.14480
F          1.16506        3.90421       -1.76660
F          2.10402        4.11852        0.16948
C          2.43528        0.95607       -0.37735
O          3.05642        1.71318       -1.14665
N          2.99104       -0.12179        0.19470
H          2.38308       -0.71573        0.75505
C          4.39262       -0.49510       -0.02225
C          5.30279        0.44128        0.77527
H          6.35370        0.28043        0.51985
H          5.17697        0.29372        1.85268
H          5.05806        1.48201        0.54395
C          4.60429       -2.00129        0.26696
C          6.05940       -2.36197       -0.05624
H          6.76209       -1.89257        0.63955
H          6.32583       -2.05394       -1.07494
H          6.19497       -3.44689        0.01584
C          4.31631       -2.36204        1.73001
H          4.98824       -1.84044        2.41940
H          4.46305       -3.43885        1.87354
H          3.28324       -2.13537        2.02120
C          3.68435       -2.82478       -0.64187
H          2.62898       -2.68719       -0.38639
H          3.91345       -3.89163       -0.53859
H          3.81759       -2.54592       -1.69473
H          4.59460       -0.34395       -1.09066
