21
id_489_ca.log	Energy: -402142.7960589
C         -0.33972        2.78429        0.00002
H          0.59644        3.33657        0.00012
H         -0.91369        3.03457        0.89524
H         -0.91354        3.03462       -0.89528
N         -0.03368        1.35405        0.00001
C         -1.04110        0.43646       -0.00002
C         -0.86858       -0.92697        0.00003
C          0.45329       -1.47585        0.00003
O          0.73492       -2.67556        0.00009
N          1.45765       -0.48891       -0.00004
C          1.26502        0.89126        0.00002
O          2.22633        1.65925        0.00006
C          2.86113       -0.91417       -0.00010
H          3.36282       -0.53325        0.89079
H          3.36298       -0.53230       -0.89048
H          2.88377       -2.00026       -0.00068
N         -2.09537       -1.56235        0.00001
C         -2.96822       -0.58947       -0.00004
H         -4.04310       -0.69692       -0.00005
N         -2.37734        0.65467       -0.00004
H         -2.85531        1.55189       -0.00008
