42
id_430_ca.log	Energy: -1287418.2627834
C         -5.36339        0.25339        1.89192
H         -5.66505        1.27323        2.13888
H         -5.14910       -0.28768        2.81878
H         -6.19576       -0.25243        1.39304
C         -4.16225        0.27358        1.01195
C         -3.47952       -0.84399        0.46113
C         -2.43896       -0.30519       -0.27871
N         -2.51963        1.03361       -0.13968
N         -3.57806        1.39711        0.62874
C         -1.63918        2.02202       -0.67946
C         -0.26327        1.90515       -0.47704
H          0.14281        1.07150        0.09422
C          0.57494        2.89128       -0.99463
H          1.64683        2.81882       -0.83809
C          0.04244        3.97706       -1.69054
H          0.70282        4.74374       -2.08412
C         -1.33627        4.08113       -1.87603
H         -1.75371        4.92479       -2.41676
C         -2.18621        3.09839       -1.37374
H         -3.26055        3.15964       -1.51632
N         -1.48014       -0.93236       -1.06998
H         -1.31106       -0.55018       -1.99901
C         -0.52711       -1.71698       -0.47630
O         -0.51443       -1.97992        0.71535
N          0.42340       -2.21678       -1.36452
H          0.44665       -1.84011       -2.31484
S          1.95399       -2.64332       -0.79744
O          2.71350       -2.86864       -2.02130
O          1.80307       -3.71373        0.17332
C          2.54775       -1.18648        0.01359
C          2.37733       -1.05241        1.38937
H          1.93859       -1.85135        1.97750
C          2.77762        0.13280        1.99924
H          2.65316        0.26902        3.06823
C          3.33718        1.13883        1.21576
C          3.52366        0.99437       -0.15805
H          3.97467        1.79028       -0.74126
C          3.11497       -0.18340       -0.77164
H          3.24171       -0.31322       -1.84229
Cl         3.81965        2.62991        1.97559
C         -3.78204       -2.21842        0.61316
N         -4.03603       -3.34443        0.74218
