23
id_440_cb.log	Energy: -899070.2399221
C         -3.29787        0.33109        0.77173
H         -4.27933        0.46348        1.21368
C         -2.52532        1.44497        0.46006
H         -2.89170        2.44741        0.65103
C         -1.27357        1.26638       -0.11608
C         -0.75510       -0.00691       -0.37956
C         -1.55755       -1.10161       -0.03684
C         -2.82031       -0.95057        0.52175
H         -3.41151       -1.82590        0.76601
Cl        -0.94041       -2.71092       -0.31056
N          0.51051       -0.16631       -0.98418
H          0.54287       -0.86815       -1.71828
C          1.63797       -0.16375       -0.17827
N          1.66693        0.15645        1.06280
C          3.07866        0.01324        1.45835
H          3.40202        0.84631        2.08579
H          3.19906       -0.90601        2.04366
C          3.86938       -0.06693        0.14430
H          4.71916       -0.74869        0.19492
H          4.22438        0.92189       -0.16642
N          2.83272       -0.56055       -0.77653
H          2.93006       -0.25758       -1.74192
Cl        -0.33276        2.67119       -0.53154
