23
id_47_cb.log	Energy: -347974.5168539
C         -0.10042       -1.60107        0.37001
H         -0.73780       -2.46657        0.53943
C          1.27817       -1.76737        0.13943
H          1.70751       -2.76720        0.12366
C          2.16245       -0.68200       -0.07426
C          1.61643        0.64224       -0.05289
C          0.26811        0.79878        0.16282
C         -0.57312       -0.29878        0.37208
C         -1.80758        0.57993        0.54080
C         -0.85551        1.80929        0.30343
H         -0.78223        2.49033        1.15569
H         -1.08918        2.38619       -0.59798
C         -2.88637        0.44462       -0.51340
H         -2.46722        0.47388       -1.52128
H         -3.65343        1.21457       -0.41375
N         -3.57700       -0.87668       -0.37141
H         -2.91392       -1.65308       -0.48407
H         -4.31450       -0.99298       -1.07476
H         -4.00857       -0.96738        0.55544
O          2.49286        1.68690       -0.25350
H          3.36386        1.25086       -0.37020
O          3.45476       -0.80577       -0.28901
H         -2.25950        0.56521        1.53967
