30
id_455_ca.log	Energy: -657994.7324545
C          1.13040        2.87549        0.15052
H          0.71498        3.86330       -0.02274
C          0.65953        2.09495        1.20429
H         -0.12273        2.47132        1.85630
C          1.18892        0.82366        1.41956
H          0.81623        0.20720        2.23413
C          2.18802        0.32341        0.58023
C          2.66620        1.11614       -0.46781
H          3.43772        0.72504       -1.12660
C          2.14137        2.38799       -0.67920
H          2.51646        2.99792       -1.49511
C          2.63277       -1.09923        0.72588
H          2.41356       -1.50016        1.71600
H          3.69251       -1.23877        0.49884
S          1.78862       -2.20614       -0.52707
C          0.19829       -1.48567       -0.42804
N         -0.23606       -0.47647       -1.18770
H          0.33182       -0.01560       -1.89669
C         -1.49411       -0.08363       -0.76765
C         -2.34800        0.93355       -1.19903
H         -2.07051        1.59544       -2.01110
C         -3.55271        1.04360       -0.52802
H         -4.25156        1.81963       -0.82061
C         -3.90066        0.17490        0.52998
H         -4.85860        0.30465        1.02177
C         -3.05471       -0.83209        0.95859
H         -3.31087       -1.50090        1.77192
C         -1.83573       -0.93976        0.28662
N         -0.75906       -1.79458        0.45127
H         -0.67852       -2.53329        1.14652
