27
id_431_cb.log	Energy: -706115.4765063
C          2.41014       -2.38237       -0.11212
H          2.78442       -3.39996       -0.06582
C          1.37049       -2.07452       -0.97714
H          0.92384       -2.83662       -1.60805
C          0.87553       -0.76565       -1.03350
C          1.43810        0.24759       -0.22914
C          2.47299       -0.12267        0.62920
C          2.97335       -1.40785        0.71272
H          3.77634       -1.62499        1.40690
F          3.02317        0.80903        1.43803
C          0.87708        1.60875       -0.40187
N         -0.25123        1.83131       -0.98773
C         -1.01175        0.68342       -1.43679
N         -0.13535       -0.39941       -1.90219
H         -0.65839       -1.19138       -2.26657
C         -2.01439        0.21329       -0.40499
C         -3.30103       -0.17421       -0.64915
H         -3.74568       -0.12787       -1.63799
C         -3.98324       -0.63584        0.51887
H         -5.01099       -0.97971        0.52711
C         -3.19808       -0.58713        1.63150
H         -3.45316       -0.86551        2.64578
S         -1.62120        0.02036        1.27596
N          1.64190        2.67339       -0.00970
H          1.14580        3.55508        0.04263
H          2.32942        2.52456        0.71454
H         -1.60326        0.98550       -2.30433
