40
id_42_cb.log	Energy: -896287.4529156
C          1.92168        2.42975       -0.95447
H          2.69081        2.15443       -1.68170
H          1.09804        2.91426       -1.48921
H          2.34292        3.15811       -0.25342
C          1.39959        1.21841       -0.18525
C          2.51354        0.43592        0.58966
N          2.04497       -0.94172        0.65826
C          1.30896       -1.46059       -0.50545
S          0.71124       -0.00282       -1.41327
C          0.37025       -2.22041        0.48614
C          1.14998       -1.45734        1.55902
O          1.01479       -1.29086        2.75629
N         -1.02782       -1.89029        0.49377
H         -1.35415       -1.19858        1.16348
C         -1.77512       -2.11300       -0.61080
O         -1.33365       -2.77312       -1.55819
C         -3.19030       -1.55968       -0.59464
H         -3.59709       -1.71360       -1.59634
H         -3.77031       -2.17103        0.10693
C         -3.26829       -0.10092       -0.20263
C         -3.46317        0.27988        1.12921
H         -3.58431       -0.48599        1.89329
C         -3.51331        1.62986        1.48258
H         -3.66625        1.90964        2.52105
C         -3.38106        2.61387        0.50331
H         -3.42746        3.66445        0.77544
C         -3.19014        2.24232       -0.82920
H         -3.08653        3.00344       -1.59760
C         -3.12931        0.89396       -1.17752
H         -2.97862        0.60544       -2.21541
C          3.90107        0.54123       -0.07067
O          4.21619       -0.32719       -0.92412
O          4.60713        1.52057        0.29024
C          0.29896        1.66193        0.78256
H         -0.53523        2.10329        0.22789
H          0.69879        2.41683        1.47047
H         -0.09474        0.83386        1.38122
H          2.57845        0.82816        1.60831
H          1.89510       -2.09925       -1.16498
H          0.53515       -3.30066        0.47395
