17
id_403_ca.log	Energy: -467358.6911181
C          3.59547       -0.57879       -0.00001
H          4.60542       -0.16952       -0.00002
H          3.44518       -1.18989       -0.89619
H          3.44520       -1.18991        0.89616
O          2.71998        0.54334        0.00001
C          1.37451        0.28930        0.00001
C          0.53728        1.41009       -0.00000
H          0.98085        2.40160       -0.00000
C         -0.84241        1.25551       -0.00000
H         -1.47606        2.13848       -0.00000
C         -1.40884       -0.02537       -0.00000
C         -0.57000       -1.13880        0.00000
H         -0.98970       -2.14153        0.00001
C          0.81887       -0.99084        0.00001
H          1.44250       -1.87759        0.00001
S         -3.17034       -0.29075       -0.00000
H         -3.51701        1.00722       -0.00001
