51
id_461_cb.log	Energy: -955240.8582295
C         -7.16590       -1.32388       -0.90239
H         -8.12865       -1.45391       -1.38678
C         -6.26115       -2.38346       -0.85458
H         -6.51591       -3.33875       -1.30235
C         -5.03092       -2.21942       -0.22519
H         -4.32554       -3.04296       -0.16887
C         -4.68969       -0.98637        0.33537
C         -5.60053        0.07322        0.29180
H         -5.34918        1.02584        0.74948
C         -6.83792       -0.09931       -0.32207
H         -7.54659        0.72240       -0.34495
C         -3.37990       -0.88755        1.05896
O         -3.02127       -1.81745        1.78960
N         -2.65129        0.25882        0.93509
C         -2.63090        1.05354       -0.29742
H         -2.47333        2.10077       -0.02487
H         -3.58002        0.97521       -0.82350
C         -1.51672        0.56060       -1.21413
H         -1.75622       -0.46473       -1.54339
H         -1.46002        1.20228       -2.09890
N         -0.20249        0.57654       -0.54651
C         -0.25634       -0.21293        0.69714
H         -0.44408       -1.27443        0.46392
H          0.70869       -0.13673        1.20521
C         -1.35437        0.31177        1.61093
H         -1.40053       -0.27648        2.52551
H         -1.15649        1.35625        1.87068
C          0.79917        0.02241       -1.47752
H          0.51718       -1.00431       -1.75532
H          0.77113        0.63519       -2.38462
C          2.19064        0.01195       -0.90224
C          2.86616       -1.17289       -0.64117
H          2.38167       -2.12049       -0.86140
C          4.14500       -1.15113       -0.08385
C          4.76380        0.05727        0.21731
H          5.75955        0.07175        0.64770
C          4.10345        1.25513       -0.03906
H          4.58481        2.20296        0.17767
C          2.82526        1.22286       -0.59051
O          2.12131        2.35183       -0.89856
C          2.21884        3.47437       -0.04293
H          2.70860        3.21809        0.90321
H          2.77634        4.28172       -0.52295
C          0.82571        3.97541        0.29284
O          0.66826        5.10547        0.71908
O         -0.18338        3.14342        0.14646
H          0.03490        2.17991       -0.16561
C          4.86512       -2.44298        0.14225
F          5.50227       -2.87045       -0.96456
F          5.79575       -2.34446        1.10443
F          4.02620       -3.43009        0.49860
