47
id_429_ca.log	Energy: -1590844.5949436
C         -3.49927        1.74021       -1.46611
H         -3.90613        1.34174       -2.39491
H         -2.42108        1.57490       -1.42163
H         -3.72041        2.80344       -1.38562
N         -4.14084        1.07376       -0.33754
C         -4.40768       -0.23223       -0.14167
N         -4.95183       -0.35873        1.05981
N         -4.99744        0.87551        1.57679
N         -4.51626        1.74220        0.74732
S         -4.14097       -1.51044       -1.31213
C         -2.56529       -2.18387       -0.61294
H         -2.36315       -3.06887       -1.22304
H         -2.76155       -2.50355        0.40864
C         -1.44903       -1.19258       -0.72727
C         -1.04820       -0.44343        0.31803
N         -0.09010        0.56229        0.16715
C          0.55018        0.98799       -1.07772
C          1.73143        1.53363       -0.20110
C          0.88870        1.03903        1.00306
O          1.00952        1.02978        2.20610
N          2.95662        0.79499       -0.36973
H          2.98009        0.02884       -1.03805
C          3.96314        0.85732        0.53875
O          3.96627        1.64770        1.47892
C          5.15618       -0.05770        0.30742
H          5.89588        0.51670       -0.26203
H          5.59411       -0.29043        1.28123
S          4.87083       -1.58378       -0.63090
C          4.10239       -2.61029        0.66672
H          4.71723       -2.59304        1.57098
H          4.07458       -3.63552        0.28676
C          2.73901       -2.20128        1.00201
N          1.65786       -1.87869        1.26316
O          1.89091        2.90850       -0.20210
C          2.54247        3.42165       -1.36921
H          3.60588        3.16625       -1.35921
H          2.42112        4.50367       -1.32880
H          2.07274        3.03119       -2.27958
S          0.81876       -0.40376       -2.21134
C         -0.90813       -0.99011       -2.12157
H         -0.91894       -1.94462       -2.65581
H         -1.54374       -0.29468       -2.68128
C         -1.61077       -0.56828        1.70272
O         -1.75674       -1.61565        2.29635
O         -1.95023        0.62294        2.19060
H         -2.31707        0.51637        3.09163
H         -0.00224        1.78924       -1.57381
