43
id_469_cb.log	Energy: -931262.0978888
C          2.19088        2.47561       -0.11380
H          1.34589        3.16948       -0.14865
H          2.91396        2.86005        0.61392
H          2.65723        2.45416       -1.10275
C          1.70284        1.09515        0.32355
C          2.84187        0.02072        0.39141
N          2.22488       -1.26510        0.12830
C          1.11557       -1.27150       -0.84278
S          0.52737        0.44782       -0.96249
C          0.37740       -2.29394        0.07541
C          1.50213       -1.98419        1.06388
O          1.69283       -2.19129        2.23876
N         -0.92789       -1.97188        0.57623
H         -1.02001       -1.61686        1.52358
C         -1.93457       -1.77621       -0.30243
O         -1.80250       -2.01623       -1.50266
C         -3.22852       -1.20510        0.26750
C         -3.09836        0.31231        0.21739
C         -3.26727        0.99830       -0.98829
H         -3.53281        0.45128       -1.88961
C         -3.09070        2.37799       -1.04260
H         -3.22262        2.90224       -1.98434
C         -2.74170        3.08590        0.10797
H         -2.60563        4.16216        0.06523
C         -2.57720        2.40715        1.31403
H         -2.31381        2.95271        2.21548
C         -2.75195        1.02451        1.36602
H         -2.61952        0.49259        2.30585
N         -4.33803       -1.78291       -0.48176
H         -5.16319       -1.20765       -0.31936
H         -4.12063       -1.69036       -1.47385
C          3.92047        0.29075       -0.64602
O          3.87381       -0.14352       -1.77433
O          4.93135        1.08193       -0.27286
H          4.86646        1.33598        0.66575
C          1.01000        1.20458        1.68240
H          0.17403        1.90627        1.61359
H          1.72071        1.58015        2.42714
H          0.61634        0.24602        2.03307
H          3.27586        0.00713        1.39586
H          1.38145       -1.64202       -1.83105
H          0.41400       -3.30441       -0.34007
H         -3.30744       -1.50415        1.31754
