53
id_458_cb.log	Energy: -1791378.1263106
C         -2.21695       -3.48223       -0.19731
H         -2.99465       -2.97811       -0.76827
H         -2.64794       -4.32452        0.34914
H         -1.43263       -3.83341       -0.86591
N         -1.58623       -2.54175        0.73787
C         -2.23314       -1.59257        1.43196
N         -1.63587       -0.74574        2.24747
C         -0.28882       -0.80111        2.35799
O          0.39224       -0.03874        3.05704
C          0.37842       -1.88905        1.61883
N         -0.24460       -2.72472        0.86361
O          1.69491       -2.02923        1.76139
H          2.01811       -1.28452        2.30981
S         -4.00395       -1.53511        1.29817
C         -4.27521        0.26545        0.96455
H         -5.34702        0.28308        0.73411
H         -4.09814        0.83583        1.87529
C         -3.45146        0.75804       -0.18876
C         -2.65231        1.83887       -0.09094
N         -1.79874        2.16877       -1.15962
C         -1.55549        1.38130       -2.38037
C         -0.08896        1.89801       -2.36944
C         -0.50247        2.63411       -1.08126
O          0.05372        3.36174       -0.28809
N          0.98346        0.95158       -2.21060
H          1.58106        0.76335       -3.00954
C          1.21799        0.29935       -1.05701
O          0.55318        0.44940       -0.03404
C          2.40659       -0.63793       -1.03909
N          2.36941       -1.81195       -1.54625
O          1.15070       -2.07556       -2.13425
C          1.11773       -3.42078       -2.60819
H          0.13456       -3.54086       -3.06485
H          1.23703       -4.12112       -1.77664
H          1.90061       -3.57977       -3.35506
C          3.58765       -0.18982       -0.29212
C          4.49550       -1.00114        0.31229
H          4.50924       -2.08109        0.37308
S          5.70928       -0.03644        1.08068
C          4.87160        1.40303        0.53474
N          3.79386        1.17373       -0.16062
N          5.38853        2.64718        0.76682
H          4.71190        3.39670        0.65189
H          5.95462        2.75649        1.60194
S         -1.88423       -0.38876       -2.17665
C         -3.54127       -0.01658       -1.48372
H         -4.10443        0.54515       -2.23700
H         -4.05376       -0.96973       -1.34288
C         -2.62317        2.86343        1.04763
O         -2.85962        4.04370        0.67973
O         -2.39327        2.47618        2.21622
H         -2.14613        1.75734       -3.21774
H          0.13877        2.55827       -3.20613
