38
id_476_ca.log	Energy: -1451023.2038986
C          6.73873       -0.87131        0.60271
H          7.17460       -0.86508       -0.39949
H          7.14663       -1.72581        1.14848
H          7.02901        0.04161        1.12880
C          5.22517       -1.02154        0.54823
H          4.76443       -1.00998        1.54072
H          4.91005       -1.92182        0.01192
S          4.49261        0.35024       -0.34043
O          4.93886        0.29828       -1.74524
O          4.74284        1.59251        0.41393
C          2.74144        0.02718       -0.30819
C          2.18262       -0.77912       -1.29456
H          2.79181       -1.18680       -2.09533
C          0.81747       -1.03910       -1.23996
H          0.35358       -1.65419       -2.00523
C          0.01506       -0.51068       -0.22214
C          0.62579        0.27793        0.76157
C          1.98696        0.55795        0.73263
H          2.44335        1.17420        1.50120
Cl        -0.31233        0.90221        2.09034
C         -1.44071       -0.81626       -0.21143
C         -1.87060       -2.12027        0.02266
H         -1.14000       -2.89711        0.22883
C         -3.23038       -2.41475       -0.00730
C         -4.17048       -1.43053       -0.27528
H         -5.22920       -1.66747       -0.29769
C         -3.74683       -0.12473       -0.52133
H         -4.49706        0.62760       -0.74095
C         -2.38754        0.18389       -0.49206
O         -1.87949        1.42936       -0.73987
C         -2.74599        2.41795       -1.25239
H         -2.10376        3.22296       -1.61979
H         -3.34358        2.04238       -2.08958
C         -3.67790        3.03232       -0.22772
O         -4.58041        3.78054       -0.54798
O         -3.39126        2.70588        1.02841
H         -4.01859        3.15361        1.63065
Cl        -3.75733       -4.05539        0.29424
