42
id_470_cb.log	Energy: -931009.8330457
C          0.69026        1.54157        1.12956
H          1.22758        2.17311        1.84751
H          0.31299        0.66260        1.66284
H         -0.17217        2.09983        0.75038
C          1.62191        1.16840       -0.02596
C          2.77334        0.24057        0.48949
N          2.23065       -1.11152        0.45584
C          1.30172       -1.44008       -0.63853
S          0.69134        0.14829       -1.27367
C          0.46652       -2.27544        0.38266
C          1.43979       -1.69424        1.41051
O          1.48372       -1.67504        2.62578
N         -0.89143       -1.88947        0.65377
H         -1.10056       -1.42110        1.53210
C         -1.81179       -1.86757       -0.33143
O         -1.56536       -2.29713       -1.46201
C         -3.16467       -1.26767        0.04696
C         -3.03580        0.24892        0.13808
C         -3.10010        0.88662        1.37947
H         -3.23221        0.29083        2.28035
C         -3.00711        2.27719        1.46894
H         -3.06567        2.76117        2.43978
C         -2.84533        3.04022        0.31342
H         -2.77533        4.12228        0.37903
C         -2.77078        2.40763       -0.93034
H         -2.63710        2.99666       -1.83346
C         -2.86514        1.02019       -1.01672
H         -2.80237        0.53366       -1.98832
N         -4.16878       -1.75588       -0.89214
H         -3.86659       -1.53157       -1.84028
H         -5.02965       -1.23371       -0.73481
C          4.06670        0.36784       -0.33544
O          4.20988       -0.38720       -1.33115
O          4.87793        1.25203        0.05013
C          2.11672        2.43822       -0.71465
H          1.26314        3.02290       -1.07403
H          2.76634        2.21696       -1.56636
H          2.67045        3.05494        0.00134
H          2.99379        0.49437        1.52990
H          1.74246       -2.02285       -1.44654
H          0.56123       -3.35168        0.21348
H         -3.41782       -1.63824        1.04549
