62
id_499_ca.log	Energy: -1449312.8433382
C          6.46850       -0.43918        1.34236
H          7.37283       -0.07984        1.81853
C          5.57344        0.41992        0.74568
H          5.76696        1.48871        0.73454
C          4.42446       -0.11597        0.14256
C          4.22108       -1.51720        0.16283
N          5.11003       -2.35371        0.75797
C          6.17990       -1.81464        1.31694
H          6.87434       -2.50981        1.78375
N          3.13009       -2.10400       -0.39722
C          2.27632       -1.29302       -0.99913
N          2.36939        0.05680       -1.09667
C          3.38975        0.64963       -0.51060
N          3.42633        2.00215       -0.54666
H          4.07246        2.47683        0.07088
C          2.25894        2.74506       -0.98299
H          2.53425        3.80251       -1.01121
H          2.01391        2.44379       -2.00289
C          1.04296        2.55137       -0.09250
C          1.17133        2.12758        1.23281
H          2.16276        1.92918        1.62956
C          0.06787        1.93976        2.05690
H          0.19215        1.60746        3.08159
C         -1.19992        2.18460        1.54226
C         -1.38109        2.61460        0.23513
H         -2.37279        2.80391       -0.16201
C         -0.25100        2.79010       -0.55899
Cl        -0.50191        3.33070       -2.20530
Cl        -2.60119        1.94793        2.55998
N          1.17291       -1.84745       -1.62453
C          0.66836       -3.12097       -1.10603
H          1.50028       -3.78339       -0.87835
H          0.05596       -3.58061       -1.88655
C         -0.16937       -2.89424        0.15007
H         -0.62760       -3.82531        0.47973
H          0.47217       -2.51241        0.95473
N         -1.23326       -1.91524       -0.10306
C         -0.77795       -0.66162       -0.71367
H         -0.16401       -0.11640        0.01624
H         -1.62428       -0.03513       -0.99132
C          0.05481       -0.96149       -1.95440
H         -0.56210       -1.47290       -2.69921
H          0.42240       -0.03154       -2.38254
C         -2.46325       -2.13172        0.38888
O         -2.78905       -3.15475        1.00307
C         -3.54023       -1.07843        0.12424
C         -4.14198       -1.23267       -1.27500
H         -4.45463       -2.27801       -1.39544
H         -3.36106       -1.03701       -2.01513
C         -5.33327       -0.29536       -1.46875
H         -4.98883        0.74494       -1.41546
H         -5.76300       -0.45081       -2.46177
C         -6.38672       -0.54287       -0.39056
H         -6.80003       -1.55338       -0.49465
H         -7.21574        0.16408       -0.47963
C         -5.78666       -0.38975        0.99536
H         -6.48730       -0.64826        1.78916
H         -5.40749        0.62112        1.16294
N         -4.61070       -1.31082        1.14532
H         -4.90742       -2.29396        1.07423
H         -3.18408       -0.05884        0.29551
H         -4.20614       -1.20894        2.08420
