13
id_401_ca.log	Energy: -683904.4583130
C          0.68548       -1.20510        0.00078
H          1.21787       -2.15208        0.00201
C         -0.70751       -1.21083        0.00045
H         -1.24807       -2.15204        0.00106
C         -1.39312       -0.00103        0.00004
C         -0.71403        1.21316       -0.00066
H         -1.25964        2.15134       -0.00149
C          0.67799        1.21251       -0.00128
H          1.20751        2.16131       -0.00313
C          1.38477        0.00540       -0.00044
S          3.15972        0.07834        0.00221
H          3.36428       -1.24937       -0.02950
Cl        -3.14347       -0.00572        0.00013
