17
id_44_cb.log	Energy: -273011.5441925
C         -2.56113        0.69158        0.00525
H         -3.50884        1.22058        0.00835
C         -2.55290       -0.71190        0.00560
H         -3.49714       -1.24760        0.00911
C         -1.36032       -1.43051        0.00181
H         -1.35623       -2.51630        0.00259
C         -0.15973       -0.71816       -0.00299
C         -0.19059        0.69265       -0.00385
C         -1.37407        1.42118        0.00117
H         -1.37176        2.50633        0.00127
N          1.14133        1.06940       -0.00749
H          1.51261        2.01150       -0.01592
C          1.87990       -0.08104       -0.00465
N          1.15177       -1.17744       -0.00200
N          3.24746       -0.03961       -0.07704
H          3.66863        0.77791        0.35246
H          3.68194       -0.90161        0.23383
