46
id_459_cb.log	Energy: -1390318.3124405
C         -5.42307        3.69702        0.29341
H         -6.38643        3.87155        0.77914
H         -4.63519        4.04028        0.97127
H         -5.36680        4.24689       -0.64543
C         -5.23715        2.23424        0.03497
O         -4.93591        1.73815       -1.03421
O         -5.43013        1.50299        1.14467
C         -5.23496        0.07682        1.04742
H         -5.59739       -0.29148        2.01090
H         -5.85434       -0.32289        0.24546
C         -3.78217       -0.29164        0.87821
C         -3.39443       -1.26796        0.03841
N         -2.05823       -1.70912        0.07528
C         -1.02590       -1.30481        1.02759
C          0.02821       -1.82150        0.00682
C         -1.17463       -2.01881       -0.92093
O         -1.32079       -2.28749       -2.09624
N          1.02176       -0.91552       -0.49529
H          0.85870       -0.41861       -1.36627
C          2.04781       -0.54581        0.29506
O          2.22380       -1.01832        1.41936
C          2.96806        0.51056       -0.26175
N          2.35870        1.45371       -0.88291
O          3.18113        2.44249       -1.33584
C          2.42248        3.40586       -2.07369
H          1.95234        2.93233       -2.93912
H          1.66831        3.86343       -1.42876
H          3.14682        4.15276       -2.39861
C          4.40823        0.36754       -0.00889
C          5.31500        1.37722        0.10830
H          5.15975        2.44443        0.05163
S          6.88676        0.72043        0.40687
C          6.19728       -0.88911        0.31960
N          4.91459       -0.92031        0.10685
N          6.96945       -1.99517        0.54542
H          6.55030       -2.85928        0.21336
H          7.95292       -1.92024        0.30820
S         -1.10062        0.48284        1.31206
C         -2.84849        0.41777        1.83510
H         -3.15803        1.46187        1.93962
H         -2.91131       -0.03583        2.83150
C         -4.27780       -2.05103       -0.93665
O         -4.10859       -3.29718       -0.93310
O         -5.07668       -1.40368       -1.65605
H         -1.07735       -1.84813        1.97266
H          0.48212       -2.75833        0.33940
