52
id_420_cb.log	Energy: -1010399.3387219
C         -2.96502       -4.52279        0.24008
H         -3.43290       -5.50082        0.18483
C         -2.92269       -3.70185       -0.88825
H         -3.35826       -4.04072       -1.82333
C         -2.32744       -2.44634       -0.81839
H         -2.30553       -1.80860       -1.69824
C         -1.75853       -1.99862        0.37843
C         -1.80154       -2.82468        1.50128
H         -1.35661       -2.48305        2.43252
C         -2.40541       -4.08079        1.43539
H         -2.43225       -4.71300        2.31770
C         -1.11427       -0.62239        0.47041
C         -2.18559        0.44025        0.27660
C         -2.91337        0.87527        1.38546
H         -2.66858        0.48947        2.37190
C         -3.95062        1.79351        1.25086
H         -4.51117        2.12845        2.11709
C         -4.25196        2.27952       -0.01594
C         -3.54324        1.86774       -1.13879
H         -3.79014        2.26228       -2.11868
C         -2.51276        0.94462       -0.98453
H         -1.94888        0.62706       -1.85601
Cl        -5.54728        3.44414       -0.20153
N         -0.00832       -0.47470       -0.49014
C          0.97919       -1.54008       -0.29498
H          1.38378       -1.52162        0.73385
H          0.51111       -2.51370       -0.45233
C          2.11985       -1.41700       -1.28683
H          1.76286       -1.47916       -2.31856
H          2.86721       -2.19285       -1.11193
N          2.79911       -0.09957       -1.13343
H          3.19107       -0.01769       -0.15149
C          1.80189        1.00646       -1.25490
H          1.43703        0.99778       -2.28519
H          2.32313        1.94587       -1.05885
C          0.66668        0.80922       -0.26926
H         -0.03886        1.62969       -0.41473
H          1.05595        0.87699        0.76081
C          3.94892        0.07689       -2.07528
H          3.59357        0.59662       -2.96728
H          4.30553       -0.91613       -2.35712
C          5.05576        0.83358       -1.37387
H          4.67801        1.77715       -0.96019
H          5.85172        1.06744       -2.09030
O          5.54637       -0.00902       -0.34270
C          5.89672        0.68047        0.83967
H          6.50475        1.56709        0.62056
H          6.50891       -0.00294        1.43608
C          4.69075        1.10014        1.69237
O          4.95368        1.78669        2.70193
O          3.53954        0.70845        1.33634
H         -0.72381       -0.51372        1.49826
