52
id_419_ca.log	Energy: -1010427.9796095
C          2.92525        4.56694        0.27958
H          3.36621        5.55811        0.22574
C          2.61992        4.00059        1.51586
H          2.82068        4.54820        2.43239
C          2.04714        2.72836        1.57930
H          1.80286        2.29064        2.54491
C          1.78023        2.00786        0.41345
C          2.09242        2.58113       -0.82489
H          1.88716        2.03586       -1.74219
C          2.65747        3.85311       -0.89123
H          2.88970        4.28899       -1.85893
C          1.19867        0.60441        0.51875
C          2.30113       -0.41657        0.27970
C          2.75220       -0.72957       -1.00708
H          2.28400       -0.27524       -1.87540
C          3.79570       -1.63105       -1.19869
H          4.13867       -1.87495       -2.19928
C          4.39383       -2.21697       -0.08593
C          3.96869       -1.92504        1.20414
H          4.44177       -2.39364        2.06135
C          2.91745       -1.02399        1.37502
H          2.57439       -0.79367        2.38095
Cl         5.70785       -3.35150       -0.32061
N          0.05503        0.41062       -0.39002
C         -0.99600        1.38139       -0.07202
H         -1.31543        1.27595        0.98175
H         -0.61746        2.39714       -0.20482
C         -2.20131        1.22466       -0.97894
H         -1.94443        1.38158       -2.03091
H         -2.97431        1.93355       -0.68031
N         -2.75868       -0.15365       -0.86392
H         -3.09885       -0.31626        0.11681
C         -1.68879       -1.16197       -1.12482
H         -2.12240       -2.14925       -0.95074
H         -1.40509       -1.06730       -2.17702
C         -0.50637       -0.93132       -0.20609
H          0.24551       -1.68740       -0.44254
H         -0.81809       -1.08229        0.84425
C         -3.94416       -0.40281       -1.73404
H         -3.63437       -0.28978       -2.77684
H         -4.23531       -1.44343       -1.56109
C         -5.08494        0.54735       -1.41010
H         -5.97315        0.21604       -1.96209
H         -4.85201        1.56699       -1.72343
O         -5.35617        0.61531       -0.01859
C         -6.00104       -0.52018        0.53209
H         -6.75063       -0.15713        1.24290
H         -6.52549       -1.08809       -0.24644
C         -5.08005       -1.47634        1.29940
O         -5.64767       -2.48154        1.79591
O         -3.85009       -1.20003        1.40867
H          0.85491        0.47206        1.56026
