31
id_445_cb.log	Energy: -421677.9495317
C         -4.18254       -0.94820       -0.41710
H         -5.24127       -0.76724       -0.21398
H         -3.93685       -1.93836       -0.03213
H         -4.03834       -0.95474       -1.51247
N         -3.38001        0.09341        0.22662
C         -3.84807        1.38151       -0.28757
H         -3.62103        1.50473       -1.36205
H         -3.40278        2.21313        0.26049
H         -4.93202        1.44270       -0.16099
C         -1.94912       -0.11121       -0.07893
C         -1.39119       -1.35325        0.61905
H         -1.36078       -1.15321        1.69943
H         -2.03172       -2.22567        0.46842
C          0.01204       -1.68419        0.11405
H         -0.05468       -2.10899       -0.89819
H          0.45583       -2.46659        0.74029
C          0.91451       -0.47310        0.08767
C          0.39453        0.83388        0.17953
C          1.28202        1.91097        0.12408
H          0.88554        2.92363        0.18666
C          2.66181        1.72706       -0.01099
H          3.33040        2.58473       -0.05200
C          3.21446        0.43574       -0.11038
C          2.28591       -0.63774       -0.05986
O          2.82050       -1.90969       -0.17426
H          3.78495       -1.75333       -0.25728
O          4.49633        0.15737       -0.25221
C         -1.09341        1.08696        0.33949
H         -1.35092        1.97357       -0.24769
H         -1.32855        1.32435        1.38857
H         -1.83809       -0.24466       -1.17583
