39
id_479_ca.log	Energy: -817672.6767049
C          4.13202       -1.85712        0.50304
H          3.85808       -1.32902        1.41610
H          5.14758       -1.60112        0.20286
H          4.03323       -2.93243        0.64046
N          3.20293       -1.42842       -0.57525
H          2.23445       -1.63211       -0.29448
C          3.31853        0.02692       -0.91275
H          3.25083        0.57487        0.02970
H          4.31843        0.16470       -1.32654
C          2.25625        0.46124       -1.91079
H          2.23448       -0.23329       -2.75813
H          2.54621        1.44112       -2.30106
C          0.84124        0.59971       -1.34471
C          0.73718        1.62219       -0.23321
C          0.49519        2.95751       -0.55935
H          0.34780        3.23603       -1.60017
C          0.43800        3.92552        0.44025
H          0.24694        4.96145        0.17811
C          0.61471        3.56232        1.77458
H          0.56375        4.31524        2.55490
C          0.85098        2.22928        2.10494
H          0.98611        1.94066        3.14264
C          0.91337        1.26066        1.10520
H          1.09552        0.21977        1.36685
O          0.47587       -0.71003       -0.87125
C         -0.77896       -0.92088       -0.40443
C         -1.88548       -0.14640       -0.74204
H         -1.79684        0.71320       -1.39534
C         -3.12296       -0.50693       -0.21963
C         -3.30152       -1.59920        0.62517
H         -4.28332       -1.84580        1.01079
C         -2.19029       -2.35402        0.96991
H         -2.28602       -3.20220        1.63861
C         -0.93313       -2.01430        0.46606
C          0.24571       -2.73091        0.84648
N          1.22795       -3.27242        1.14415
Cl        -4.50983        0.45886       -0.64549
H          0.18115        0.87921       -2.17245
H          3.38039       -1.97849       -1.42406
