36
id_467_ca.log	Energy: -535760.9714134
C         -3.01735        2.29014        0.72180
H         -3.93942        2.36012        0.14302
H         -2.40875        3.17587        0.55423
H         -3.26040        2.20300        1.78205
N         -2.24908        1.12517        0.28995
C         -0.96923        1.22535       -0.19701
C         -0.26595        0.10938       -0.58748
C         -0.80524       -1.21257       -0.54562
O         -0.23228       -2.24129       -0.90263
N         -2.10874       -1.22376       -0.03180
C         -2.84231       -0.11046        0.38632
O         -3.98174       -0.23878        0.82420
C         -2.80768       -2.50503        0.08517
H         -3.71808       -2.48533       -0.51534
H         -3.06784       -2.69008        1.12824
H         -2.14238       -3.28427       -0.27534
N          0.95061        0.59131       -1.03692
C          0.90197        1.92837       -0.86949
H          1.73757        2.56059       -1.13975
N         -0.24967        2.36092       -0.36759
C          2.09805       -0.19217       -1.48069
H          1.76947       -0.90426       -2.23975
H          2.80390        0.49895       -1.94366
C          2.71775       -0.98341       -0.34077
H          3.60277       -1.51577       -0.69607
H          1.99782       -1.70127        0.05756
N          3.15396       -0.12543        0.80733
C          4.22780        0.84111        0.43535
H          4.52754        1.37547        1.33599
H          3.84633        1.54567       -0.30230
H          5.06452        0.27107        0.02947
C          3.59367       -0.98201        1.94780
H          3.85304       -0.33332        2.78346
H          4.46296       -1.55350        1.62054
H          2.77520       -1.64771        2.21860
H          2.33940        0.41580        1.12738
