60
id_497_cb.log	Energy: -1042531.4020518
C          3.21891        3.48823        1.00357
H          3.90279        2.85230        0.42771
H          3.43887        3.34444        2.06487
H          3.43754        4.52740        0.73845
C          1.78856        3.13977        0.68848
C          0.99853        2.42979        1.59798
H          1.41074        2.15487        2.56585
C         -0.30955        2.06126        1.28238
H         -0.90809        1.49793        1.99280
C         -0.83758        2.42380        0.04671
C         -0.07938        3.15534       -0.86838
H         -0.50076        3.43228       -1.83046
C          1.22473        3.50910       -0.54160
H          1.82041        4.07699       -1.25259
S         -2.43058        1.78719       -0.45307
O         -3.21150        1.64545        0.80581
O         -2.98480        2.75772       -1.42504
N         -2.20164        0.41884       -1.21541
C         -1.81674       -0.66138       -0.43718
C         -0.55473       -1.18809       -0.10210
C         -0.83642       -2.37455        0.62808
N         -2.14635       -2.56055        0.73218
N         -2.72472       -1.51287        0.10604
C         -4.18541       -1.44643       -0.01012
H         -4.38410       -0.47304       -0.46161
C         -4.69097       -2.54663       -0.93751
H         -4.48860       -3.53533       -0.51290
H         -4.21152       -2.47964       -1.91936
H         -5.77230       -2.44449       -1.07200
C         -4.83683       -1.50812        1.36538
H         -4.66557       -2.48150        1.83532
H         -5.91639       -1.36375        1.25957
H         -4.44516       -0.72602        2.02295
C          0.09959       -3.38883        1.20836
H          0.58767       -3.02493        2.12039
H          0.88180       -3.66183        0.49275
H         -0.46039       -4.29020        1.47030
C          0.75739       -0.62979       -0.48276
O          0.90839        0.06918       -1.50396
N          1.79408       -0.93084        0.32867
H          1.60853       -1.45866        1.17371
C          3.17821       -0.51146        0.10493
C          3.75333       -0.06382        1.44749
H          3.15633        0.75662        1.85504
H          4.78340        0.28643        1.34319
H          3.74034       -0.88314        2.17497
C          4.01284       -1.61740       -0.60207
C          4.16946       -2.85159        0.29268
H          4.76084       -2.63382        1.18844
H          4.68361       -3.64729       -0.25907
H          3.19513       -3.24314        0.61079
C          3.32108       -2.03131       -1.90590
H          3.20265       -1.17512       -2.58019
H          2.33008       -2.46188       -1.72044
H          3.92358       -2.78839       -2.42105
C          5.39787       -1.05787       -0.94898
H          5.99617       -0.85251       -0.05564
H          5.31327       -0.12892       -1.52690
H          5.95068       -1.78328       -1.55713
H          3.13394        0.35183       -0.57005
