20
id_402_ca.log	Energy: -289364.2967266
C          4.07007        0.03019        0.00004
H          4.23737        0.64447        0.88992
H          4.23744        0.64441       -0.88987
H          4.79962       -0.78495        0.00009
C          2.67107       -0.54301        0.00001
H          2.49687       -1.15926        0.89052
H          2.49693       -1.15931       -0.89048
O          1.75556        0.55461       -0.00004
C          0.41342        0.26446       -0.00003
C         -0.45211        1.36268       -0.00001
H         -0.03391        2.36517       -0.00001
C         -1.82900        1.17431        0.00001
H         -2.49910        2.03044        0.00002
C         -2.35257       -0.12015        0.00001
C         -1.49626       -1.21519       -0.00001
H         -1.91168       -2.21880       -0.00001
C         -0.11154       -1.02938       -0.00003
H          0.53489       -1.89963       -0.00004
O         -3.71063       -0.36496        0.00003
H         -4.19627        0.47679        0.00004
