32
id_446_ca.log	Energy: -421970.7177856
C          4.23532       -0.92843        0.38359
H          5.28936       -0.72897        0.17407
H          3.99937       -1.91390       -0.01905
H          4.10146       -0.95798        1.47977
N          3.41356        0.11490       -0.23278
C          3.87446        1.40048        0.29488
H          3.66063        1.50471        1.37395
H          3.41285        2.23527       -0.23467
H          4.95570        1.47566        0.15433
C          1.98992       -0.10834        0.08860
C          1.43626       -1.35187       -0.60868
H          1.40186       -1.15397       -1.68902
H          2.07919       -2.22190       -0.45700
C          0.03658       -1.68951       -0.09998
H          0.10259       -2.10981        0.91365
H         -0.40657       -2.47280       -0.72445
C         -0.87052       -0.48382       -0.07599
C         -0.36404        0.82096       -0.17044
C         -1.24835        1.90392       -0.13281
H         -0.85579        2.91575       -0.20012
C         -2.62260        1.71200       -0.00859
H         -3.30923        2.55450        0.01887
C         -3.12313        0.41933        0.09164
C         -2.24859       -0.66793        0.06297
O         -2.73282       -1.95079        0.17348
H         -3.70328       -1.91935        0.24066
O         -4.46022        0.11592        0.22609
H         -4.98791        0.93224        0.23447
C          1.12217        1.08548       -0.31558
H          1.36400        1.96686        0.28511
H          1.34875        1.34240       -1.36094
H          1.89166       -0.24777        1.18565
