26
id_427_ca.log	Energy: -575451.9258746
C         -2.93542       -1.70137       -0.03624
H         -3.50300       -2.61784        0.09092
C         -2.02547       -1.58575       -1.08452
H         -1.87996       -2.41031       -1.77519
C         -1.28963       -0.41279       -1.24470
H         -0.56512       -0.32385       -2.04901
C         -1.47524        0.64902       -0.35661
C         -2.39459        0.53782        0.69020
H         -2.53561        1.36749        1.37700
C         -3.11841       -0.64069        0.85114
H         -3.82931       -0.72833        1.66670
S         -0.49338        2.13158       -0.53136
C          0.72731        1.81477        0.80978
H          1.39555        2.68015        0.82048
H          0.20571        1.75364        1.76618
C          1.48130        0.55149        0.56476
C          1.10032       -0.67998        1.07900
H          0.23916       -0.72854        1.73641
C          1.81999       -1.82137        0.73847
H          1.52089       -2.78473        1.13712
C          2.92074       -1.72870       -0.11167
H          3.49948       -2.59950       -0.39172
C          3.27533       -0.48872       -0.60109
H          4.11516       -0.31077       -1.25988
N          2.55381        0.59127       -0.25337
H          2.83705        1.49617       -0.63485
