61
id_499_cb.log	Energy: -1449020.0895635
C         -6.43164       -0.45712       -1.41089
H         -7.32861       -0.10808       -1.90823
C         -5.53500        0.41586       -0.83663
H         -5.72003        1.48577       -0.86640
C         -4.39602       -0.10665       -0.20428
C         -4.20267       -1.50930       -0.17339
N         -5.09365       -2.35954       -0.74580
C         -6.15452       -1.83271       -1.33307
H         -6.85057       -2.53897       -1.78050
N         -3.12024       -2.08429        0.41469
C         -2.26396       -1.25890        0.99440
N         -2.35319        0.09394        1.05127
C         -3.36579        0.67351        0.43967
N         -3.40267        2.02561        0.44766
H         -4.04413        2.49285       -0.17977
C         -2.25685        2.77974        0.91944
H         -2.53848        3.83591        0.92239
H         -2.05178        2.49278        1.95204
C         -1.00557        2.58340        0.08053
C         -1.08395        2.19215       -1.25846
H         -2.06106        2.01286       -1.69781
C          0.05016        2.01602       -2.04286
H         -0.03557        1.71173       -3.08012
C          1.29862        2.23700       -1.47268
C          1.43005        2.62805       -0.14744
H          2.40641        2.79593        0.29464
C          0.27087        2.79489        0.60510
Cl         0.46347        3.29545        2.27266
Cl         2.73846        2.02360       -2.43852
N         -1.16647       -1.79524        1.64221
C         -0.68114       -3.10173        1.19185
H         -1.52294       -3.76513        1.00670
H         -0.07074       -3.52438        1.99479
C          0.15358       -2.95228       -0.07716
H          0.59566       -3.90630       -0.35902
H         -0.49338       -2.60962       -0.89598
N          1.23211       -1.97794        0.11059
C          0.79736       -0.68933        0.65459
H          0.18792       -0.16451       -0.09558
H          1.65421       -0.06459        0.89941
C         -0.03250       -0.90909        1.91517
H          0.58227       -1.38973        2.68217
H         -0.38472        0.04674        2.29718
C          2.46883       -2.24530       -0.37054
O          2.75426       -3.34098       -0.87199
C          3.55537       -1.18659       -0.22142
C          4.12942       -1.26227        1.20658
H          4.47959       -2.29083        1.37127
H          3.34785       -1.06223        1.94878
C          5.29355       -0.28441        1.36368
H          4.91259        0.74246        1.27113
H          5.73330       -0.37699        2.36208
C          6.34121       -0.53347        0.27947
H          6.79193       -1.52431        0.42702
H          7.14802        0.20545        0.33932
C          5.69090       -0.48421       -1.10142
H          6.42382       -0.70869       -1.88171
H          5.32008        0.53188       -1.29004
N          4.55929       -1.40471       -1.26440
H          4.89977       -2.35972       -1.14352
H          3.14343       -0.18456       -0.38956
