23
id_488_ca.log	Energy: -486289.3338849
C         -4.01832        0.37426       -0.97677
H         -4.90486        0.16647       -1.55952
C         -3.39414       -0.47732       -0.00282
H         -3.70090       -1.46762        0.30612
C         -2.31676        0.20340        0.46678
O         -2.22474        1.42034       -0.15196
C         -3.26728        1.50377       -1.02854
H         -3.32918        2.41806       -1.60024
C         -1.26624       -0.11064        1.46993
H         -1.53121       -1.01924        2.01032
H         -1.14540        0.70233        2.18863
N          0.05332       -0.31929        0.83491
C          0.96412        0.67929        0.78263
H          0.69368        1.59996        1.29107
C          2.15889        0.54147        0.13890
C          2.48350       -0.70573       -0.53305
O          3.52525       -0.93717       -1.13676
N          1.48309       -1.65870       -0.43884
H          1.65029       -2.55122       -0.90277
C          0.26811       -1.53699        0.19240
O         -0.56281       -2.43091        0.19798
C          3.10955        1.59938        0.10892
N          3.89751        2.45052        0.07279
