43
id_484_cb.log	Energy: -847736.1039407
C         -4.41661       -0.40126       -1.09641
H         -5.09716        0.43149       -1.26322
H         -4.99106       -1.25393       -0.72153
H         -3.95236       -0.67178       -2.05045
N         -3.41997        0.02570       -0.13053
H         -3.42689        0.97234        0.23713
C         -2.41678       -0.73877        0.29453
C         -1.44478       -0.28456        1.23130
H         -0.70716       -0.94980        1.64542
N         -1.36444        0.97898        1.68962
O         -0.48099        1.26151        2.53832
O         -2.13122        1.89598        1.27110
N         -2.33973       -2.01200       -0.14125
H         -2.99181       -2.28685       -0.86706
C         -1.13338       -2.82954       -0.03893
H         -0.80288       -2.87148        1.00121
H         -1.41347       -3.84439       -0.32336
C         -0.02716       -2.31106       -0.95859
H          0.10396       -1.23135       -0.83656
H         -0.29246       -2.49767       -2.00270
S          1.57009       -3.12746       -0.66587
C          2.15639       -2.15822        0.78351
H          1.37191       -2.14945        1.54619
H          3.00565       -2.72027        1.17842
C          2.58794       -0.77668        0.45572
C          3.78592       -0.23461        0.10654
H          4.72290       -0.76788        0.02620
C          3.54812        1.15908       -0.12308
H          4.26869        1.91173       -0.41150
C          2.22395        1.37214        0.10097
O          1.62965        0.19441        0.46004
C          1.34984        2.57572        0.01226
H          1.94683        3.45504        0.27186
H          0.55215        2.48427        0.76934
N          0.77732        2.79831       -1.32498
C         -0.01846        1.64265       -1.72935
H          0.62170        0.76702       -1.86528
H         -0.50618        1.85655       -2.68424
H         -0.80274        1.39791       -0.98996
C         -0.10267        3.96011       -1.23387
H         -0.54071        4.17084       -2.21297
H          0.46733        4.83660       -0.91310
H         -0.92342        3.79840       -0.51321
