41
id_482_cb.log	Energy: -740422.1656493
C          4.13211       -2.38651       -2.40656
H          5.21814       -2.36446       -2.22504
H          3.96485       -2.55902       -3.47243
H          3.72107       -3.23933       -1.85740
N          3.45066       -1.16530       -1.98659
H          3.82268       -0.39739       -2.54598
C          3.76420       -0.86238       -0.59177
H          3.37500       -1.67663        0.03032
H          4.85205       -0.82445       -0.41365
C          3.15684        0.46170       -0.14758
H          3.54138        1.27747       -0.77180
H          3.45500        0.67532        0.88551
C          1.63412        0.50170       -0.22820
C          1.08864        1.84343        0.21083
C          0.88763        2.84735       -0.73832
H          1.07980        2.63696       -1.78806
C          0.44118        4.10709       -0.34588
H          0.28671        4.88155       -1.09087
C          0.18482        4.36837        0.99932
H         -0.16883        5.34781        1.30610
C          0.37954        3.36652        1.94883
H          0.17824        3.56425        2.99725
C          0.83312        2.10850        1.55753
H          0.98384        1.32743        2.29791
O          1.17394       -0.55486        0.62993
C         -0.11872       -0.93051        0.57895
C         -1.08837       -0.37490       -0.25476
H         -0.84835        0.43634       -0.93178
C         -2.38559       -0.87896       -0.20737
C         -2.75463       -1.91361        0.64669
H         -3.77254       -2.28433        0.66127
C         -1.79078       -2.46653        1.47883
H         -2.03826       -3.27754        2.15451
C         -0.48361       -1.97991        1.44537
C          0.52477       -2.54964        2.29017
N          1.33828       -3.01467        2.97307
C         -3.42551       -0.23148       -1.07996
F         -4.45330       -1.05261       -1.33185
F         -2.91814        0.15097       -2.26091
F         -3.93526        0.86947       -0.50321
H          1.31698        0.28275       -1.25355
