9
id_406_cb.log	Energy: -323494.0720892
C         -2.19931       -0.24776       -0.29155
H         -2.29623        0.21800       -1.27149
H         -3.02293       -0.87515        0.04016
C         -1.10986       -0.05867        0.46067
H         -1.04093       -0.54863        1.43363
C          0.07693        0.75995        0.06184
H          0.24657        1.53607        0.81842
H         -0.14079        1.26989       -0.88404
S          1.60298       -0.27008       -0.09515
