59
id_492_ca.log	Energy: -1089116.0822971
C          5.88464        1.65889       -0.08549
H          6.70098        2.27580        0.30376
H          4.95665        2.23274        0.01672
H          6.06428        1.49460       -1.15361
C          5.80836        0.33487        0.66818
H          5.65516        0.52187        1.73965
H          6.76083       -0.20049        0.57164
C          4.70119       -0.60599        0.18078
H          4.83907       -0.80542       -0.88838
C          4.72591       -1.92902        0.94654
H          5.72207       -2.36508        0.81225
H          4.61540       -1.71757        2.01935
C          3.65611       -2.91837        0.49754
H          3.69943       -3.08135       -0.58566
H          2.65389       -2.55470        0.74323
H          3.78837       -3.88562        0.99257
N          3.38190        0.01509        0.31973
H          2.89438       -0.10396        1.20331
C          2.75411        0.68538       -0.65691
O          3.24696        0.88146       -1.78218
C          1.42165        1.24286       -0.32004
C          0.91843        2.50414       -0.72317
N         -0.29841        2.69954       -0.22954
N         -0.61493        1.58193        0.46096
C          0.40836        0.68201        0.43515
N          0.35642       -0.61677        0.96837
H         -0.12519       -0.72630        1.86270
S         -0.07970       -1.85688       -0.09346
O          0.81968       -1.74924       -1.23697
O         -0.07199       -3.05677        0.73981
C         -1.72815       -1.52062       -0.62938
C         -1.93198       -0.85766       -1.83682
H         -1.09137       -0.58147       -2.46653
C         -3.23877       -0.55878       -2.21563
H         -3.41554       -0.03681       -3.15229
C         -4.32304       -0.90574       -1.40318
C         -4.07942       -1.56743       -0.19040
H         -4.91531       -1.83143        0.45243
C         -2.78646       -1.87748        0.20902
H         -2.60285       -2.38426        1.15248
C         -5.73034       -0.57136       -1.81272
H         -5.74878        0.27335       -2.50649
H         -6.34312       -0.32724       -0.93985
H         -6.19603       -1.42811       -2.31387
C         -1.90490        1.45748        1.05859
C         -3.02451        1.80677        0.30394
H         -2.90038        2.14942       -0.71839
C         -4.28986        1.69357        0.87374
H         -5.16498        1.95798        0.28684
C         -4.43494        1.22151        2.17915
H         -5.42460        1.12260        2.61483
C         -3.30634        0.88559        2.92668
H         -3.41088        0.53908        3.95024
C         -2.03200        1.01722        2.37617
H         -1.15243        0.81575        2.98173
C          1.59493        3.54753       -1.54852
H          1.66078        3.23312       -2.59454
H          2.61323        3.72636       -1.19041
H          1.03231        4.48276       -1.49943
