31
id_414_ca.log	Energy: -3927049.8758218
C          4.41061        1.60489       -0.09294
H          4.44054        2.68758       -0.13551
C          3.19632        0.94381       -0.10867
H          2.27406        1.50528       -0.15370
C          3.15160       -0.45725       -0.06520
C          4.37017       -1.16595        0.00235
C          5.59182       -0.51278        0.03659
H          6.51361       -1.07975        0.09157
C          5.59187        0.86879       -0.02056
N          6.86942        1.56829       -0.00498
O          7.89327        0.90364        0.05426
O          6.85687        2.78934       -0.05132
N          4.41043       -2.62416        0.04019
O          3.49099       -3.24991       -0.46088
O          5.38386       -3.14857        0.56103
O          2.00743       -1.16444       -0.05525
N          0.84652       -0.37147       -0.02806
C         -0.17534       -1.13779       -0.04114
H         -0.06481       -2.22293       -0.06839
C         -1.52643       -0.57477       -0.01960
C         -2.60894       -1.45622       -0.01829
H         -2.43350       -2.52779       -0.03313
C         -3.90324       -0.96137        0.00113
C         -4.15667        0.41391        0.01902
C         -3.05179        1.28019        0.01720
C         -1.75371        0.80521       -0.00160
H         -0.91863        1.49822       -0.00237
Br        -3.36935        3.14136        0.03718
O         -5.43871        0.83033        0.03685
H         -5.48911        1.80324        0.04557
Br        -5.36134       -2.14877       -0.00065
