35
id_428_ca.log	Energy: -399706.4802387
C         -0.83168        1.01015        2.60994
H         -1.44838        1.91218        2.59833
H          0.18805        1.26846        2.30635
H         -0.79858        0.63530        3.63548
C         -1.39106       -0.07949        1.71686
H         -2.40705       -0.36703        1.99199
H         -0.75981       -0.96944        1.76043
N         -1.44433        0.37866        0.27546
C         -2.69745        1.17869        0.01294
H         -3.54212        0.52405        0.23116
H         -2.68451        1.98285        0.75025
C         -2.74597        1.73553       -1.39462
H         -1.82513        2.27484       -1.63904
H         -3.57757        2.44207       -1.45085
H         -2.91624        0.95696       -2.14207
C         -1.22935       -0.74774       -0.71314
C         -2.34911       -1.76617       -0.66491
H         -2.11469       -2.56591       -1.36952
H         -3.29875       -1.31841       -0.96408
H         -2.44959       -2.20702        0.33017
C          0.14333       -1.38004       -0.42842
O          0.22359       -2.57675       -0.22667
C          1.34549       -0.50169       -0.37208
C          1.44049        0.69013       -1.10208
H          0.63544        1.00621       -1.76144
C          2.59324        1.46537       -1.01361
H          2.67077        2.38132       -1.58972
C          3.64289        1.06341       -0.19012
H          4.53692        1.67459       -0.11757
C          3.54957       -0.12192        0.54079
H          4.36718       -0.43132        1.18351
C          2.40791       -0.90707        0.44514
H          2.32073       -1.83139        1.00762
H         -1.18091       -0.27820       -1.70066
H         -0.66405        1.03825        0.14469
