58
id_496_ca.log	Energy: -1018158.3075005
C         -5.18407        0.43701        2.08137
H         -5.69440        0.24979        3.03137
H         -5.82543        1.08809        1.47623
H         -4.26083        0.98304        2.30048
C         -4.89939       -0.87135        1.35055
H         -5.83300       -1.42632        1.20505
H         -4.24222       -1.51055        1.95704
C         -4.25910       -0.67491       -0.02425
H         -4.88803       -0.00419       -0.62054
C         -4.08854       -2.00405       -0.76707
H         -3.39456       -2.63417       -0.19354
H         -5.05850       -2.51627       -0.76730
C         -3.59353       -1.84386       -2.20133
H         -3.47435       -2.82043       -2.68188
H         -2.62498       -1.33509       -2.23833
H         -4.30479       -1.25901       -2.79566
N         -2.96798       -0.00647        0.14128
H         -2.36281       -0.35697        0.87933
C         -2.46918        0.91771       -0.69415
O         -3.11479        1.38269       -1.65320
C         -1.10796        1.42019       -0.39910
C         -0.54872        2.63367       -0.87115
N          0.66286        2.82077       -0.35294
N          0.92487        1.74733        0.41084
C         -0.12161        0.89084        0.42844
N         -0.13273       -0.30986        1.16596
H          0.28774       -0.25640        2.09829
S          0.33118       -1.73450        0.37977
O         -0.47997       -1.80088       -0.83060
O          0.21011       -2.76640        1.40520
C          2.02468       -1.54305       -0.07584
C          2.32605       -0.88243       -1.26790
H          1.53681       -0.56762       -1.94519
C          3.66066       -0.63572       -1.56757
H          3.91364       -0.12235       -2.49171
C          4.68335       -1.02585       -0.69206
C          4.34431       -1.69520        0.49067
H          5.13026       -2.01533        1.16914
C          3.01589       -1.95748        0.81172
H          2.75670       -2.46979        1.73349
C          6.11583       -0.70069       -1.01151
H          6.33172       -0.87721       -2.06918
H          6.80245       -1.29623       -0.40490
H          6.31402        0.35839       -0.80775
C          2.14092        1.69202        1.24429
H          2.35437        0.62864        1.38384
C          3.31596        2.33846        0.52569
H          3.43235        1.94449       -0.48770
H          4.22737        2.11998        1.09028
H          3.19431        3.42379        0.47190
C          1.86398        2.33780        2.59845
H          2.75546        2.26234        3.22827
H          1.03302        1.84114        3.11044
H          1.61712        3.39679        2.46884
C         -1.13605        3.65034       -1.79426
H         -1.27708        3.23748       -2.79734
H         -0.46561        4.51088       -1.85979
H         -2.11257        3.98898       -1.43658
