62
id_493_ca.log	Energy: -1300552.1444911
C         -5.90850       -0.67479       -1.94194
H         -6.58342       -1.12358       -1.20861
H         -6.19546       -1.03602       -2.93610
H         -6.05155        0.41044       -1.93426
C         -4.47638       -1.02373       -1.64609
C         -4.15977       -2.03250       -0.72674
H         -4.95962       -2.57361       -0.22831
C         -2.83756       -2.34056       -0.42806
H         -2.59780       -3.11798        0.29197
C         -1.82766       -1.62546       -1.07218
C         -2.10541       -0.61469       -1.99177
H         -1.30141       -0.06650       -2.47420
C         -3.43672       -0.32724       -2.27461
H         -3.67228        0.46205       -2.98388
S         -0.15033       -1.94766       -0.62767
O          0.72803       -1.39078       -1.64911
O         -0.00720       -3.33621       -0.20201
N          0.14629       -1.05134        0.78008
H         -0.31529       -1.47946        1.58519
C          0.04260        0.34083        0.66551
C          0.97083        1.20985        0.12033
C          0.30869        2.45218        0.13838
N         -0.90236        2.36826        0.66439
N         -1.06925        1.07630        0.96861
C         -2.31961        0.62444        1.50022
C         -3.49453        1.04690        0.88203
H         -3.44800        1.69554        0.01297
C         -4.71608        0.60924        1.38762
H         -5.63716        0.92700        0.90746
C         -4.75587       -0.25031        2.48618
H         -5.71057       -0.59901        2.86810
C         -3.57042       -0.65476        3.10024
H         -3.59709       -1.30539        3.96875
C         -2.34136       -0.20681        2.61874
H         -1.42107       -0.47124        3.13228
C          0.82033        3.77683       -0.33082
F          0.07899        4.78865        0.14057
F          0.81041        3.87805       -1.67294
F          2.08668        3.98589        0.06736
C          2.32757        0.91218       -0.41369
O          2.73322        1.49495       -1.43177
N          3.04943        0.01994        0.27127
H          2.62209       -0.41694        1.08217
C          4.37109       -0.43515       -0.17965
C          5.42123        0.61954        0.16924
H          6.39972        0.35073       -0.23776
H          5.51279        0.74154        1.25301
H          5.13296        1.58423       -0.25869
C          4.66599       -1.85489        0.36403
C          5.95484       -2.36941       -0.28860
H          6.83008       -1.78630        0.01450
H          5.88173       -2.33902       -1.38253
H          6.12890       -3.40912        0.01030
C          4.83974       -1.86778        1.88803
H          5.71562       -1.29001        2.20053
H          4.98179       -2.89954        2.22950
H          3.96296       -1.46883        2.41306
C          3.51799       -2.79565       -0.02431
H          2.58896       -2.54501        0.49891
H          3.77621       -3.82764        0.23898
H          3.32371       -2.75578       -1.10309
H          4.30649       -0.51648       -1.27249
