64
id_498_ca.log	Energy: -1067471.4712752
C          6.23376       -1.13961       -1.66319
H          6.30077       -0.27307       -2.32612
H          6.51208       -2.02729       -2.24318
H          6.96478       -1.02853       -0.85767
C          4.84283       -1.29554       -1.11349
C          3.73817       -0.79365       -1.81406
H          3.89214       -0.26854       -2.75293
C          2.44487       -0.95999       -1.32949
H          1.59248       -0.57356       -1.88261
C          2.26922       -1.63161       -0.11898
C          3.34514       -2.13877        0.60635
H          3.18472       -2.65074        1.55022
C          4.62809       -1.96767        0.09713
H          5.47774       -2.36055        0.64930
S          0.63662       -1.76540        0.53928
O         -0.28121       -1.96442       -0.57715
O          0.63343       -2.69568        1.66603
N          0.23154       -0.28204        1.23325
H          0.63173       -0.18533        2.16640
C          0.18823        0.85822        0.41252
C         -0.73507        1.09960       -0.59429
C         -0.31067        2.30676       -1.18758
N          0.75950        2.77668       -0.55903
N          1.09207        1.87958        0.39395
C          2.14006        2.24827        1.40192
C          2.92165        3.45070        0.87413
H          3.39876        3.22583       -0.08433
H          3.70211        3.68088        1.60496
H          2.28686        4.33034        0.75519
C          1.43649        2.63044        2.70689
H          0.87854        1.79232        3.13778
H          0.74305        3.46019        2.53602
H          2.18552        2.94706        3.43956
C          3.12430        1.09588        1.61191
H          2.68495        0.23366        2.11765
H          3.93686        1.45877        2.24888
H          3.55297        0.77347        0.65758
C         -0.92868        3.04172       -2.33141
H         -0.74546        2.52177       -3.27696
H         -0.50632        4.04722       -2.40027
H         -2.01241        3.12225       -2.20163
C         -1.93749        0.31831       -0.97034
O         -2.22442        0.13491       -2.16750
N         -2.69381       -0.11430        0.04876
H         -2.35911        0.07193        0.98931
C         -3.82239       -1.03715       -0.08354
C         -3.62530       -2.16174        0.93161
H         -4.41859       -2.90928        0.85404
H         -3.61444       -1.77437        1.95656
H         -2.66917       -2.66125        0.74750
C         -5.18056       -0.29308        0.02371
C         -5.25701        0.76904       -1.07924
H         -5.17287        0.31089       -2.07211
H         -4.46034        1.51513       -0.97891
H         -6.21788        1.29396       -1.02744
C         -6.32292       -1.29353       -0.18651
H         -6.40932       -1.99956        0.64566
H         -6.17971       -1.86729       -1.11084
H         -7.27578       -0.75779       -0.26680
C         -5.34025        0.38427        1.38855
H         -6.28750        0.93522        1.41999
H         -4.53259        1.10080        1.57970
H         -5.35387       -0.34484        2.20596
H         -3.75873       -1.45638       -1.09407
