36
id_466_ca.log	Energy: -793019.3986549
C         -2.21006       -3.08781        1.53747
H         -2.47580       -3.88493        2.22462
C         -2.27433       -3.30094        0.16084
H         -2.58841       -4.26479       -0.22739
C         -1.92660       -2.28021       -0.71964
H         -1.96760       -2.44658       -1.79363
C         -1.51856       -1.03689       -0.23154
C         -1.45378       -0.82627        1.14764
H         -1.12751        0.13526        1.53772
C         -1.79851       -1.85071        2.02800
H         -1.74284       -1.68001        3.09861
C         -1.19956        0.06536       -1.22069
C         -2.44247        0.80936       -1.71071
H         -2.13140        1.57298       -2.43196
H         -3.07100        0.08973       -2.24380
C         -3.30191        1.44165       -0.62905
H         -3.59739        0.72731        0.14062
H         -4.19799        1.87774       -1.06901
N         -2.59152        2.55932        0.07509
H         -2.21954        3.24470       -0.59378
H         -1.79287        2.21118        0.61822
O         -0.35994        1.07193       -0.63454
C          0.91684        0.77604       -0.30452
C          1.56373       -0.41966       -0.60835
H          1.05872       -1.22503       -1.12761
C          2.89222       -0.56380       -0.22038
C          3.59754        0.42450        0.45971
H          4.63124        0.27117        0.74518
C          2.94072        1.60766        0.76601
H          3.45408        2.39988        1.29952
C          1.60824        1.78559        0.39088
C          0.89643        2.98601        0.70942
N          0.29061        3.94276        0.96174
Cl         3.70201       -2.05860       -0.60616
H         -0.69242       -0.35199       -2.09789
H         -3.22715        3.05034        0.71328
