41
id_430_cb.log	Energy: -1287140.4405840
C         -5.04039       -0.20502        2.50920
H         -5.39971        0.78066        2.81193
H         -4.61104       -0.70850        3.38107
H         -5.89018       -0.80157        2.16305
C         -4.02118       -0.07137        1.43111
C         -3.33629       -1.11995        0.75902
C         -2.49894       -0.49196       -0.15214
N         -2.69231        0.83515        0.01429
N         -3.63149        1.10174        0.96116
C         -1.99911        1.89329       -0.64846
C         -0.60375        1.88111       -0.67623
H         -0.05041        1.08918       -0.17572
C          0.06769        2.91225       -1.32953
H          1.15360        2.91031       -1.35750
C         -0.64961        3.94973       -1.92677
H         -0.12179        4.75469       -2.42901
C         -2.04405        3.95653       -1.87454
H         -2.60381        4.76365       -2.33689
C         -2.72842        2.92166       -1.23992
H         -3.81334        2.90523       -1.20420
N         -1.64486       -1.02702       -1.10767
H         -1.61132       -0.52788       -1.99384
C         -0.41358       -1.56534       -0.69778
O         -0.24175       -1.86392        0.49353
N          0.44594       -1.67606       -1.73562
S          1.94554       -2.13834       -1.37261
O          2.72802       -2.01637       -2.61906
O          2.02982       -3.45260       -0.70470
C          2.59953       -0.92038       -0.23742
C          2.90239       -1.27238        1.07296
H          2.75611       -2.29132        1.41645
C          3.39227       -0.30117        1.94428
H          3.63603       -0.55507        2.97064
C          3.55788        0.99881        1.47738
C          3.25164        1.35851        0.16630
H          3.39039        2.37992       -0.17306
C          2.76826        0.38412       -0.70051
H          2.52249        0.64628       -1.72627
Cl         4.16723        2.22057        2.56654
C         -3.47461       -2.51500        0.94733
N         -3.59664       -3.65944        1.10787
