28
id_416_ca.log	Energy: -409791.7736035
C         -4.76918       -1.95597        0.23129
H         -4.82164       -2.73552        0.99806
H         -4.59476       -2.44509       -0.73402
H         -5.74691       -1.46284        0.18415
C         -3.66534       -0.94705        0.53563
H         -2.70177       -1.46636        0.60596
H         -3.84568       -0.48072        1.51319
C         -3.58210        0.14500       -0.52920
H         -4.54799        0.66045       -0.60543
H         -3.37922       -0.30038       -1.51188
C         -2.53591        1.19842       -0.23393
H         -2.68980        1.65586        0.74883
H         -2.52230        1.98422       -0.99416
O         -1.24732        0.54481       -0.23248
C         -0.18228        1.30869        0.01163
O         -0.26566        2.51083        0.22018
C          1.09346        0.55574        0.00153
C          2.28924        1.25845        0.19662
H          2.26044        2.33285        0.35034
C          3.50608        0.59390        0.19322
H          4.43938        1.12819        0.34159
C          3.53185       -0.79019       -0.00524
C          2.34606       -1.50486       -0.19779
H          2.38399       -2.58016       -0.34959
C          1.13234       -0.82973       -0.19480
H          0.21272       -1.38584       -0.34497
O          4.75244       -1.39856       -0.00173
H          4.65266       -2.35574       -0.14357
