44
id_484_ca.log	Energy: -848027.8047169
C         -4.44588       -0.04723       -1.05550
H         -5.03142        0.85146       -1.23934
H         -5.10714       -0.82311       -0.65808
H         -4.01965       -0.38904       -2.00413
N         -3.40135        0.28956       -0.10389
H         -3.31387        1.23617        0.25292
C         -2.47653       -0.56506        0.32367
C         -1.45545       -0.19766        1.24886
H         -0.80448       -0.93348        1.68825
N         -1.22044        1.06124        1.65871
O         -0.30829        1.26855        2.49959
O         -1.86690        2.05062        1.19776
N         -2.52546       -1.84537       -0.09402
H         -3.21025       -2.06747       -0.80792
C         -1.38630       -2.75790       -0.01666
H         -1.03439       -2.82279        1.01505
H         -1.75365       -3.74758       -0.28977
C         -0.26598       -2.33086       -0.96603
H         -0.04901       -1.26401       -0.85455
H         -0.56925       -2.50195       -2.00240
S          1.27057       -3.26568       -0.70839
C          1.94680       -2.36475        0.74326
H          1.17744       -2.30029        1.51846
H          2.75523       -2.99478        1.12077
C          2.48527       -1.01746        0.42857
C          3.72516       -0.57216        0.08289
H          4.61193       -1.18168       -0.01790
C          3.61087        0.84086       -0.10229
H          4.39192        1.53827       -0.37139
C          2.31133        1.15655        0.14348
O          1.61429        0.02881        0.46928
C          1.56818        2.43780        0.11974
H          2.24549        3.26769        0.32691
H          0.75245        2.44108        0.84833
N          0.94112        2.73235       -1.22301
C          0.04238        1.63880       -1.68856
H          0.62841        0.73044       -1.82262
H         -0.39809        1.94366       -2.63757
H         -0.73535        1.50408       -0.93363
C          0.21218        4.03127       -1.16729
H         -0.16368        4.25896       -2.16398
H          0.90199        4.80482       -0.83134
H         -0.61183        3.91752       -0.46132
H          1.70601        2.82145       -1.90297
