43
id_468_ca.log	Energy: -931290.1116748
C          2.09984        2.41657       -0.67636
H          2.65704        3.01783        0.04984
H          2.74493        2.20650       -1.53497
H          1.25104        3.01291       -1.02632
C          1.58863        1.14235       -0.00651
C          2.72912        0.19913        0.50812
N          2.19773       -1.15079        0.46861
C          1.26004       -1.46513       -0.62656
S          0.67705        0.13030       -1.27053
C          0.41313       -2.28698        0.39579
C          1.38875       -1.71819        1.42853
O          1.43142       -1.68953        2.63948
N         -0.94211       -1.88793        0.65684
H         -1.15549       -1.41929        1.53415
C         -1.85249       -1.85727       -0.33858
O         -1.59606       -2.28772       -1.46612
C         -3.20196       -1.24276        0.02583
C         -3.05336        0.27162        0.12483
C         -3.14141        0.90736        1.36574
H         -3.30656        0.31163        2.26116
C         -3.03102        2.29631        1.46097
H         -3.10919        2.77921        2.43096
C         -2.82679        3.05925        0.31210
H         -2.74289        4.14004        0.38230
C         -2.72759        2.42833       -0.93079
H         -2.56059        3.01723       -1.82845
C         -2.84018        1.04266       -1.02311
H         -2.75831        0.55693       -1.99378
N         -4.20097       -1.71348       -0.92733
H         -5.06013       -1.18864       -0.76943
H         -3.89076       -1.47813       -1.87023
C          3.97207        0.28505       -0.35599
O          4.16677       -0.39932       -1.33903
O          4.81610        1.22253        0.07469
H          5.57847        1.28105       -0.53583
C          0.65850        1.50789        1.15150
H          1.19836        2.12963        1.87556
H          0.27122        0.62899        1.67633
H         -0.19663        2.07560        0.77083
H          2.98531        0.45889        1.53870
H          1.69243       -2.05604       -1.43286
H          0.50095       -3.36424        0.22898
H         -3.47192       -1.61442        1.01953
