49
id_477_cb.log	Energy: -1159397.4699207
C         -0.30054        3.85518       -1.96287
H         -0.91504        3.70421       -2.85760
H          0.33261        2.97205       -1.83105
H          0.35396        4.71365       -2.14211
C         -1.17761        4.09786       -0.73856
H         -1.75604        5.01911       -0.86339
H         -0.55771        4.21906        0.15911
C         -2.17013        2.96585       -0.48832
C         -3.04442        3.30245        0.73707
O         -2.72106        2.81932        1.85109
O         -4.00786        4.08447        0.51079
O         -1.39169        1.78482       -0.29725
C         -2.01015        0.58594       -0.21335
C         -3.39704        0.41774       -0.25867
H         -4.06271        1.26857       -0.34889
C         -3.94514       -0.86134       -0.19975
H         -5.02314       -0.98089       -0.23297
C         -3.11125       -1.96869       -0.10312
C         -1.72484       -1.80420       -0.06363
H         -1.07378       -2.67277        0.00857
C         -1.15785       -0.53566       -0.10718
C          0.32438       -0.38644       -0.10684
C          1.04236       -1.02741       -1.12650
H          0.50055       -1.58034       -1.88879
C          2.42918       -0.95796       -1.18881
H          2.97899       -1.45053       -1.98448
C          3.08738       -0.22574       -0.20564
C          2.40136        0.40569        0.82654
H          2.94599        0.95408        1.59176
C          1.00672        0.33728        0.89223
C          0.30292        1.02094        2.03389
H          0.15079        2.08287        1.81287
H          0.90586        0.95099        2.94369
H         -0.67778        0.57988        2.23085
S          4.86216       -0.15573       -0.22005
O          5.28450        1.12850        0.37358
O          5.32817       -0.45654       -1.58835
C          5.38379       -1.48306        0.86509
H          4.91523       -1.27478        1.83178
H          4.95148       -2.39512        0.44258
C          6.90203       -1.53937        0.95043
H          7.17724       -2.36310        1.61396
H          7.31182       -0.61450        1.36404
H          7.34896       -1.72528       -0.02954
C         -3.66410       -3.35571       -0.04574
F         -5.00754       -3.38660       -0.06988
F         -3.28196       -4.01572        1.07097
F         -3.24227       -4.11899       -1.07992
H         -2.81472        2.83175       -1.36662
