42
id_482_ca.log	Energy: -740715.2463941
C          4.50420       -2.16313       -2.16626
H          5.54584       -1.87489       -2.03226
H          4.31603       -2.45530       -3.19776
H          4.23874       -2.97006       -1.48475
N          3.65241       -0.98500       -1.84268
H          3.87837       -0.21403       -2.48305
C          3.82400       -0.51820       -0.43042
H          3.48971       -1.33598        0.21027
H          4.89497       -0.36748       -0.28693
C          3.06945        0.77053       -0.15209
H          3.40486        1.56357       -0.82895
H          3.32481        1.07945        0.86711
C          1.54817        0.66344       -0.25667
C          0.88939        1.95308        0.18611
C          0.60668        2.94162       -0.75728
H          0.81977        2.75687       -1.80766
C          0.05093        4.15438       -0.35616
H         -0.16726        4.91886       -1.09529
C         -0.23268        4.38023        0.98978
H         -0.67204        5.32228        1.30259
C          0.04408        3.39139        1.93268
H         -0.17869        3.56189        2.98142
C          0.60749        2.18141        1.53396
H          0.82327        1.40962        2.26786
O          1.18668       -0.43770        0.58516
C         -0.06954       -0.92853        0.53632
C         -1.10226       -0.42877       -0.25316
H         -0.95283        0.42795       -0.90046
C         -2.34943       -1.04763       -0.19705
C         -2.60305       -2.14484        0.61889
H         -3.58385       -2.60421        0.64141
C         -1.57161       -2.64656        1.40253
H         -1.72889       -3.50542        2.04529
C         -0.31472       -2.04382        1.36121
C          0.76827       -2.55752        2.14786
N          1.64693       -2.97542        2.77841
C         -3.45886       -0.45350       -1.02065
F         -4.47134       -1.31073       -1.19909
F         -3.02915       -0.07935       -2.23521
F         -3.96846        0.64401       -0.43783
H          1.24637        0.43337       -1.28727
H          2.66951       -1.22876       -2.01141
