41
id_42_ca.log	Energy: -896566.0747190
C          1.79057        2.47428       -0.75350
H          2.51890        2.28476       -1.54767
H          0.93293        2.99211       -1.19428
H          2.23856        3.14233       -0.00913
C          1.31979        1.18847       -0.07597
C          2.47861        0.36410        0.58355
N          2.06264       -1.02541        0.55940
C          1.26133       -1.45854       -0.60136
S          0.62104        0.05711       -1.37350
C          0.38060       -2.29877        0.37780
C          1.21014       -1.61667        1.46788
O          1.13925       -1.53753        2.67498
N         -1.01695       -1.98532        0.48338
H         -1.33232       -1.42457        1.27071
C         -1.81743       -2.09704       -0.60067
O         -1.41036       -2.62413       -1.64177
C         -3.23165       -1.56643       -0.44542
H         -3.75243       -1.77778       -1.38184
H         -3.71995       -2.12951        0.35757
C         -3.26905       -0.08494       -0.13388
C         -3.44030        0.37092        1.17676
H         -3.55969       -0.35091        1.98251
C         -3.47192        1.73882        1.45555
H         -3.61106        2.07741        2.47839
C         -3.33466        2.66540        0.42259
H         -3.36486        3.72996        0.63657
C         -3.15685        2.21832       -0.88872
H         -3.04751        2.93462       -1.69831
C         -3.12260        0.85213       -1.16342
H         -2.98656        0.50470       -2.18532
C          3.78754        0.51953       -0.17606
O          4.11089       -0.20228       -1.09435
O          4.58266        1.52976        0.18720
H          4.23151        2.02351        0.95137
C          0.25941        1.51816        0.97630
H         -0.60267        1.99053        0.49517
H          0.67655        2.21587        1.71215
H         -0.09695        0.63186        1.51057
H          2.60937        0.68058        1.62338
H          1.81309       -2.04426       -1.33525
H          0.55607       -3.37280        0.27281
