14
id_5_cb.log	Energy: -668465.8048452
C         -2.34175        1.27799        0.00000
H         -2.15365        1.86517       -0.90115
H         -2.15365        1.86518        0.90114
H         -3.36229        0.88646        0.00001
S         -1.25259       -0.12549        0.00001
O         -1.46664       -0.87905       -1.25719
O         -1.46663       -0.87903        1.25721
C          0.40700        0.56155       -0.00001
H          0.46738        1.19072       -0.89360
H          0.46738        1.19073        0.89358
C          1.47194       -0.52891       -0.00000
H          1.33508       -1.16077       -0.88357
H          1.33509       -1.16075        0.88358
S          3.14682        0.22074       -0.00001
