41
id_554_ca.log	Energy: -863078.6088828
C          5.14927        0.32455       -1.95112
H          5.88033       -0.48468       -1.85148
H          5.60717        1.26673       -1.65062
H          4.85336        0.38128       -3.00389
C          3.96199        0.04014       -1.10650
N          3.49915        0.76017       -0.15901
C          2.33714        0.10336        0.43161
N          2.16083       -1.09950       -0.39513
C          3.12622       -1.18196       -1.28219
N          3.33707       -2.12692       -2.15982
H          2.72741       -2.93657       -2.22983
H          4.12357       -2.06001       -2.79796
C          1.12128        1.01997        0.38969
C          1.27981        2.36489        0.73460
H          2.26530        2.74870        0.97628
C          0.17556        3.20970        0.76392
H          0.30292        4.25344        1.03207
C         -1.09181        2.72210        0.46057
H         -1.95241        3.38265        0.50740
C         -1.26402        1.37592        0.12449
C         -0.14816        0.53006        0.09323
H         -0.28895       -0.50924       -0.18802
C         -2.61131        0.84700       -0.19374
C         -3.00233       -0.43680        0.19317
H         -2.33452       -1.08370        0.75404
C         -4.28080       -0.85737       -0.13731
C         -5.13980       -0.01235       -0.83108
H         -6.14480       -0.33632       -1.08510
N         -4.77195        1.21304       -1.20941
C         -3.54045        1.62127       -0.89731
H         -3.26527        2.61551       -1.23898
Cl        -4.83147       -2.44383        0.32661
C          2.66660       -0.25650        1.87626
H          2.81849        0.63157        2.48192
C          3.48442       -1.46507        2.20790
H          3.79950       -2.10865        1.39155
H          4.19903       -1.37215        3.01790
C          2.01630       -1.43033        2.54126
H          1.72510       -1.31220        3.57888
H          1.34984       -2.05593        1.95475
H          1.45380       -1.81435       -0.24239
