37
id_53_cb.log	Energy: -541488.6837459
C          2.84053       -2.89663        0.37100
H          2.23230       -3.55905       -0.24710
H          2.53375       -3.02503        1.42356
H          3.88101       -3.21733        0.27659
N          2.72480       -1.50805       -0.06800
C          3.63498       -0.69006        0.73813
H          3.29799       -0.65672        1.79094
H          4.62266       -1.15885        0.72809
C          3.72199        0.71495        0.17249
H          4.30497        1.35530        0.84298
H          4.25565        0.68818       -0.78542
C          2.34815        1.30356       -0.02992
C          2.19347        2.67913       -0.22523
H          3.07491        3.31585       -0.22428
C          0.93305        3.22442       -0.42598
H          0.81880        4.29077       -0.59546
C         -0.19170        2.40351       -0.40713
H         -1.17053        2.83421       -0.57384
C         -0.06542        1.02707       -0.18985
C          1.22523        0.47293       -0.02884
C          1.34933       -1.03492        0.13110
C          0.36685       -1.68420       -0.84635
H          0.64758       -1.38658       -1.86604
H          0.41248       -2.77412       -0.79401
C         -1.03513       -1.23664       -0.52274
C         -1.23652        0.11498       -0.16723
C         -2.52337        0.51876        0.20702
C         -3.58916       -0.39418        0.18101
C         -3.38658       -1.70921       -0.19967
H         -4.22684       -2.39788       -0.20961
C         -2.09990       -2.12761       -0.54117
H         -1.92598       -3.16358       -0.81657
O         -4.80380        0.12137        0.56419
H         -5.45760       -0.59479        0.62227
O         -2.77150        1.79617        0.62971
H         -3.70774        1.84503        0.89365
H          1.02062       -1.29459        1.15911
