52
id_558_cb.log	Energy: -1506436.8133318
C         -2.99124        0.27760        1.32167
H         -2.23592        0.64761        2.00370
C         -4.14553        1.02902        1.12682
H         -4.27196        1.96665        1.65748
C         -5.14301        0.59973        0.26071
C         -4.97624       -0.60726       -0.42291
C         -3.83149       -1.36640       -0.24042
H         -3.70116       -2.30391       -0.76975
C         -2.83276       -0.92981        0.63586
O         -1.77020       -1.76470        0.75923
C         -0.63821       -1.35686        1.55076
H         -0.99942       -0.97408        2.51099
C          0.18835       -0.31027        0.80545
H         -0.42237        0.55555        0.52789
H          0.97554        0.04387        1.48245
C          0.82061       -0.90833       -0.44604
H          1.43053       -0.15712       -0.94870
H          0.02565       -1.20516       -1.15470
N          1.66417       -2.05937       -0.10904
C          0.82880       -3.11160        0.48482
H          0.04901       -3.42954       -0.23012
H          1.45433       -3.98433        0.69110
C          0.18454       -2.61969        1.77657
H         -0.45364       -3.40107        2.20018
H          0.96662       -2.38874        2.50824
C          2.40248       -2.56047       -1.27590
H          1.90509       -3.44974       -1.68780
H          2.40265       -1.80018       -2.06389
C          3.86370       -2.90710       -0.91817
C          4.83213       -1.73393       -1.08422
H          5.84652       -2.08150       -0.86933
H          4.80758       -1.35589       -2.10720
N          4.51886       -0.63378       -0.18607
H          4.53067       -0.85428        0.80320
C          3.83562        0.45919       -0.58427
O          3.61399        0.72763       -1.77089
C          3.34546        1.34471        0.49445
C          3.57172        1.27353        1.85916
H          4.17935        0.61313        2.46201
N          2.85779        2.26512        2.41508
H          2.80675        2.50081        3.40056
N          2.16827        2.98883        1.53031
C          2.45760        2.43993        0.36089
C          1.83374        3.01252       -0.87280
F          1.05205        4.05718       -0.57332
F          1.06097        2.11818       -1.51136
F          2.74889        3.44367       -1.74990
O          3.94154       -3.40607        0.41178
H          3.33756       -2.83447        0.92386
Cl        -6.19465       -1.19047       -1.51883
Cl        -6.56935        1.57287        0.04835
H          4.21341       -3.70707       -1.57829
