60
id_569_cb.log	Energy: -1000839.9729311
C         -4.23203        0.87900        0.38044
H         -4.97488        1.66409        0.49500
C         -4.65462       -0.43385        0.20035
H         -5.71193       -0.67409        0.16736
C         -3.70931       -1.44311        0.04947
C         -2.34762       -1.14944        0.06096
C         -1.94742        0.17623        0.24885
H         -0.88504        0.40513        0.27197
C         -2.87350        1.20215        0.41716
C         -2.44918        2.63057        0.67968
H         -2.58229        2.83339        1.74968
H         -3.13904        3.31052        0.14708
N         -1.06034        2.91662        0.34420
C         -0.68900        4.23117        0.87592
H         -0.81885        4.22176        1.96342
H         -1.35502        5.01546        0.46711
C          0.75277        4.57314        0.52485
H          1.42292        3.85151        1.00720
H          0.99618        5.56407        0.91752
N          1.02535        4.54806       -0.91656
H          0.43432        5.26758       -1.33879
C          0.57576        3.26210       -1.46006
H          1.23483        2.48114       -1.06135
H          0.69375        3.27101       -2.54708
C         -0.86702        2.92421       -1.10903
H         -1.53965        3.66725       -1.58008
H         -1.12648        1.94155       -1.51735
C         -1.27157       -2.19261       -0.06518
O         -1.19215       -3.14546        0.71312
N         -0.40061       -1.96274       -1.06742
H         -0.52958       -1.10969       -1.59975
C          0.91170       -2.59174       -1.13112
H          1.16460       -2.74771       -2.18500
H          0.83208       -3.57203       -0.65357
C          2.00597       -1.75632       -0.45591
C          2.11668       -0.36752       -1.11388
H          1.16533        0.17472       -1.00579
H          2.30741       -0.48638       -2.19003
C          3.24283        0.44620       -0.45993
H          3.30692        1.43068       -0.93959
C          4.57517       -0.29889       -0.62875
H          5.38872        0.28117       -0.17427
H          4.80758       -0.41207       -1.69567
C          4.48149       -1.67980        0.03779
H          5.42969       -2.21557       -0.08702
C          3.35071       -2.48662       -0.61819
H          3.56155       -2.63101       -1.68695
H          3.28211       -3.48278       -0.15932
C          4.17968       -1.50221        1.53347
H          4.12801       -2.48256        2.02480
H          4.98824       -0.93574        2.01336
C          2.84547       -0.76075        1.70595
H          2.62651       -0.63829        2.77308
C          2.93385        0.61863        1.03481
H          1.98258        1.15552        1.15867
H          3.71705        1.22037        1.51385
C          1.72145       -1.57379        1.04624
H          1.63244       -2.55913        1.52442
H          0.76341       -1.05388        1.18630
Cl        -4.26650       -3.07921       -0.21818
