58
id_516_cb.log	Energy: -1371743.4644817
C          5.88457        4.01188       -0.59723
H          6.06256        5.06864       -0.77497
C          5.19408        3.59828        0.54461
H          4.83466        4.33395        1.25880
C          4.96533        2.24288        0.77486
H          4.43078        1.93082        1.66790
C          5.41749        1.28107       -0.13714
C          6.10804        1.70304       -1.27597
H          6.45972        0.96225       -1.99060
C          6.34300        3.06003       -1.50676
H          6.87993        3.37067       -2.39874
C          5.19735       -0.20153        0.10979
C          6.09213       -0.59447        1.31340
O          5.63674       -0.46584        2.47905
O          7.26241       -0.97022        1.02158
N          3.78555       -0.54558        0.30493
C          3.67030       -1.99998        0.48114
H          4.26648       -2.29769        1.34800
H          4.09118       -2.51716       -0.40346
C          2.22313       -2.43924        0.67858
H          1.83685       -1.99011        1.60169
H          2.19673       -3.52793        0.80061
C          1.37331       -2.02409       -0.52052
H          1.80084       -2.52345       -1.40230
C          1.53417       -0.51302       -0.72993
H          1.11790        0.03266        0.12612
H          0.99947       -0.18027       -1.62690
C          3.00762       -0.14699       -0.87639
H          3.10437        0.93302       -1.01546
H          3.42145       -0.63292       -1.78251
N         -0.01220       -2.51914       -0.42766
C         -0.69453       -2.45340       -1.72376
H         -0.83976       -1.40870       -2.05001
H         -0.06567       -2.94353       -2.47388
C         -2.04838       -3.15395       -1.65902
H         -1.90081       -4.21780       -1.44121
H         -2.55884       -3.07798       -2.62505
C         -2.93618       -2.57360       -0.56648
H         -3.84561       -3.17593       -0.47161
C         -2.17464       -2.49727        0.75484
H         -2.03286       -3.52018        1.12315
H         -2.75718       -1.95581        1.50806
C         -0.82115       -1.81606        0.57402
H         -0.29020       -1.80967        1.52954
H         -0.98801       -0.76370        0.28456
O         -3.30538       -1.25230       -1.01546
C         -4.31413       -0.58781       -0.39388
C         -5.16214       -1.13620        0.57370
H         -5.05066       -2.15681        0.91975
C         -6.18051       -0.35448        1.11298
H         -6.84035       -0.77770        1.86388
C         -6.36699        0.96170        0.70662
C         -5.51394        1.50235       -0.25924
C         -4.49360        0.73760       -0.80479
H         -3.83109        1.15781       -1.55472
Cl        -5.70420        3.14391       -0.80327
Cl        -7.65371        1.90045        1.40805
H          5.59291       -0.74695       -0.76477
