66
id_507_cb.log	Energy: -1479186.7294564
C          7.91270       -1.10138       -1.02972
H          7.30135       -1.90094       -1.43940
C          9.23124       -1.35530       -0.68109
H          9.66125       -2.34264       -0.81192
C         10.01187       -0.31717       -0.15744
C          9.47513        0.96284        0.01429
H         10.09142        1.75868        0.41885
C          8.15263        1.19817       -0.34076
H          7.73020        2.19027       -0.21152
C          7.35870        0.17422       -0.86739
C          5.91159        0.41964       -1.21794
H          5.65153       -0.11584       -2.13565
H          5.75423        1.48825       -1.38448
C          4.98598       -0.08632       -0.10431
C          5.20993        0.74130        1.16032
O          5.33059        1.95054        1.17803
O          5.20112        0.00098        2.27576
H          5.28724        0.60098        3.04311
N          3.57347       -0.09488       -0.49779
C          2.73862       -0.78795        0.49223
H          3.20641       -1.75051        0.72288
H          2.68194       -0.21573        1.43623
C          1.32479       -0.99583       -0.03820
H          1.35680       -1.64390       -0.92435
H          0.73245       -1.51128        0.72510
C          0.68027        0.33916       -0.41104
H          0.58998        0.94100        0.50492
C          1.61106        1.09993       -1.35949
H          1.21144        2.09959       -1.56554
H          1.67146        0.56510       -2.31641
C          3.01249        1.23355       -0.77405
H          2.96270        1.84497        0.14406
H          3.65900        1.75651       -1.48292
C         -0.69414        0.18302       -1.05689
H         -0.56178       -0.27844       -2.04442
H         -1.11582        1.19271       -1.23159
N         -1.64821       -0.64429       -0.31670
C         -1.91469       -0.07129        1.00482
H         -2.27782        0.96981        0.91064
H         -0.98232       -0.03850        1.57460
C         -2.92977       -0.90651        1.77931
H         -2.51795       -1.90491        1.96153
H         -3.13003       -0.44350        2.75039
C         -4.23284       -1.07169        1.01140
H         -4.90170       -1.74949        1.55286
C         -3.94383       -1.57526       -0.40016
H         -3.58059       -2.60595       -0.32366
H         -4.85515       -1.59097       -1.00628
C         -2.89596       -0.70456       -1.08289
H         -2.67249       -1.10893       -2.07522
H         -3.30645        0.31203       -1.23392
O         -4.83240        0.23743        0.97030
C         -6.12714        0.37289        0.59011
C         -6.58886        1.68891        0.46317
H         -5.90195        2.50679        0.65146
C         -7.90247        1.93614        0.10720
H         -8.25928        2.95597        0.01106
C         -8.78010        0.87875       -0.13300
C         -8.31682       -0.42736       -0.00909
C         -6.99652       -0.69209        0.35061
H         -6.67683       -1.72312        0.43579
Cl        -9.37148       -1.78044       -0.30284
Cl       -10.42554        1.22382       -0.58084
C         11.37880       -0.56910        0.20338
N         12.48281       -0.77311        0.49490
H          5.25339       -1.12147        0.13062
