58
id_574_ca.log	Energy: -1023536.6037723
C          3.18098       -3.63913        0.31302
H          4.03656       -3.03442        0.62394
H          3.43459       -4.12043       -0.63728
H          2.99881       -4.41134        1.05894
C          1.93045       -2.82667        0.16885
N          0.86445       -3.22326        0.78818
C         -0.30193       -2.50164        0.61270
C         -1.47393       -2.91741        1.27102
H         -1.43279       -3.79873        1.90264
C         -2.65186       -2.22197        1.09783
H         -3.55167       -2.57283        1.59447
C         -2.72064       -1.07987        0.26658
C         -1.56409       -0.66311       -0.37748
H         -1.56346        0.22193       -1.00640
C         -0.36534       -1.36803       -0.20958
C          0.84860       -0.91814       -0.88087
O          0.90899        0.07909       -1.60031
N          1.97298       -1.70692       -0.65097
C          3.22311       -1.28903       -1.30550
H          3.79061       -2.18188       -1.56662
H          2.94470       -0.78862       -2.23407
C          4.09461       -0.36530       -0.45267
C          5.42727       -0.12882       -1.16844
H          5.94779       -1.08230       -1.30167
H          5.22498        0.28135       -2.16685
C          6.30069        0.84503       -0.38129
H          7.21111        1.08754       -0.93586
H          6.60645        0.39126        0.56930
C          5.56321        2.14328       -0.09664
H          6.14957        2.81548        0.53151
H          5.28425        2.65778       -1.01940
N          4.28636        1.85243        0.63970
C          3.39644        0.96542       -0.18242
H          2.46586        0.83621        0.37198
H          3.19372        1.49579       -1.11591
C          3.59966        3.11127        1.15222
H          4.42142        3.70855        1.55587
C          2.64584        2.75011        2.27979
H          2.28292        3.67693        2.73131
H          3.15024        2.16693        3.05654
H          1.77826        2.19143        1.91736
C          2.91321        3.86971        0.02896
H          2.57197        4.82660        0.43218
H          2.03709        3.32859       -0.34019
H          3.58622        4.07824       -0.80688
C         -3.99937       -0.34917        0.09057
C         -4.91716       -0.24664        1.14342
H         -4.68882       -0.68958        2.10819
C         -6.11682        0.43904        0.98667
H         -6.81817        0.51956        1.81018
C         -6.39880        1.02929       -0.23997
C         -5.51007        0.94550       -1.30581
H         -5.74977        1.40452       -2.25890
C         -4.31588        0.25466       -1.13301
H         -3.63176        0.16944       -1.97187
Cl        -7.90503        1.89621       -0.44708
H          4.28878       -0.84860        0.51518
H          4.54836        1.31632        1.47899
