41
id_596_cb.log	Energy: -886249.4061097
C          6.70016        0.78251        0.64094
H          7.75728        0.64959        0.88807
H          6.15553        1.01041        1.56076
H          6.60869        1.62942       -0.04465
C          6.16646       -0.47992       -0.00311
H          6.23370       -1.33809        0.66793
H          6.69740       -0.70917       -0.92800
O          4.79619       -0.31307       -0.41514
C          3.86751       -0.42375        0.55643
O          4.14629       -0.73294        1.71186
N          2.61653       -0.13570        0.11910
C          2.28560       -0.05006       -1.30658
H          3.16163        0.29076       -1.85405
H          2.01682       -1.04746       -1.67604
C          1.13083        0.91737       -1.53552
H          0.85931        0.90469       -2.59527
H          1.45124        1.93373       -1.27662
C         -0.09643        0.56351       -0.69663
C          0.33627        0.49730        0.77968
H          0.64048        1.50334        1.09319
H         -0.50931        0.18773        1.40336
C          1.49238       -0.47021        0.99618
H          1.16709       -1.49917        0.79477
H          1.83863       -0.42070        2.02751
N         -1.10701        1.60676       -0.91300
H         -0.75335        2.54183       -0.72408
C         -2.33332        1.36483       -0.32269
C         -3.13913        2.41378        0.13776
H         -2.78485        3.43482        0.03400
C         -4.35531        2.13702        0.73635
H         -4.97490        2.94910        1.10297
C         -4.77977        0.81982        0.91015
H         -5.70828        0.59300        1.42062
C         -3.98387       -0.20948        0.42855
C         -2.76859        0.02140       -0.23150
C         -1.87184       -0.95836       -0.90977
N         -0.62901       -0.71307       -1.14489
N         -2.41982       -2.09353       -1.44770
H         -1.74052       -2.78248       -1.74851
H         -3.25989       -2.47953       -1.04459
Cl        -4.56041       -1.83468        0.77346
