19
id_55_ca.log	Energy: -250137.9471425
C         -2.58949       -0.44064        0.02467
H         -2.75262       -1.03494        0.93080
H         -2.73901       -1.10588       -0.83353
H         -3.34168        0.34863       -0.01248
C         -1.20677        0.13998        0.01147
C         -1.01055        1.53921        0.00657
H         -1.86451        2.20578        0.00991
C          0.25061        2.05489       -0.02315
H          0.49087        3.10867       -0.04408
N          1.31320        1.20495       -0.01824
C          1.19595       -0.13398        0.00473
C         -0.10356       -0.70241       -0.00865
N         -0.18560       -2.09188        0.03681
H          0.45384       -2.55344       -0.60721
H         -1.12671       -2.44144       -0.11410
N          2.30261       -0.90995       -0.01430
H          3.19515       -0.46226        0.16801
H          2.20545       -1.83472        0.39223
H          2.25053        1.60551       -0.01324
