26
id_579_cb.log	Energy: -372650.5803664
C         -1.18851        1.37490       -0.04388
H         -1.32662        2.45386       -0.08292
C          0.10409        0.83418       -0.00647
C          0.26119       -0.55534        0.04501
C         -0.87628       -1.37452        0.05450
H         -0.77273       -2.45613        0.09134
C         -2.14983       -0.83345        0.01769
C         -2.30664        0.55898       -0.03197
O         -3.60256        1.01399       -0.06374
H         -3.60539        1.98475       -0.10711
O         -3.24777       -1.65753        0.02922
H         -4.04462       -1.10004        0.00275
C          1.63293       -1.19223        0.12244
H          1.64847       -2.11295       -0.47365
H          1.84355       -1.48833        1.15977
C          2.74637       -0.25445       -0.32828
C          2.59149        1.08439        0.38119
H          2.58583        0.90632        1.46467
H          3.44864        1.73075        0.15909
C          1.29716        1.76725       -0.05394
H          1.41596        2.13888       -1.08079
H          1.09870        2.64691        0.56780
N          4.04533       -0.85127       -0.00554
H          4.77069       -0.24919       -0.39510
H          4.12489       -1.72988       -0.51825
H          2.62611       -0.07600       -1.41043
