66
id_508_ca.log	Energy: -1479219.0650946
C          0.04975       -1.24188        2.01070
H         -0.74660       -0.63472        2.43732
C          1.37517       -0.89707        2.24373
H          1.62804       -0.01975        2.83237
C          2.39151       -1.69896        1.70894
C          2.08218       -2.82628        0.93813
H          2.87995       -3.43873        0.52896
C          0.74870       -3.14993        0.70821
H          0.50282       -4.02726        0.11480
C         -0.28188       -2.36910        1.24599
C         -1.73239       -2.71351        1.01925
H         -1.84651       -3.78409        0.81870
H         -2.27908       -2.47982        1.93676
C         -2.33373       -1.91772       -0.15349
C         -1.62542       -2.34271       -1.46006
O         -0.92212       -1.46669       -2.03697
O         -1.76497       -3.53320       -1.84939
N         -3.78953       -2.12221       -0.25969
C         -4.51998       -1.64045        0.92760
H         -5.58195       -1.84585        0.74755
H         -4.23542       -2.22235        1.80627
C         -4.32904       -0.14683        1.18646
H         -4.92224        0.15880        2.05641
H         -3.27735        0.03323        1.44822
C         -4.75757        0.68018       -0.03742
H         -5.85419        0.63826       -0.08666
C         -4.21834        0.10757       -1.36415
H         -4.77181        0.55234       -2.19941
H         -3.16375        0.37007       -1.52849
C         -4.34711       -1.41867       -1.42940
H         -5.40677       -1.69205       -1.49126
H         -3.86662       -1.79363       -2.33889
C         -4.41154        2.15999        0.11922
H         -4.80624        2.74319       -0.71552
H         -4.80267        2.57186        1.05267
N         -2.91307        2.36033        0.13437
H         -2.48206        1.46522       -0.13882
C         -2.44796        3.37359       -0.87336
H         -2.81130        4.34282       -0.52080
H         -2.92979        3.13261       -1.82231
C         -0.93335        3.31686       -1.00930
H         -0.61164        4.15428       -1.63519
H         -0.67315        2.39875       -1.53971
C         -0.24115        3.41034        0.35366
H         -0.34786        4.44162        0.70486
C         -0.84054        2.50406        1.42888
H         -0.62736        1.44594        1.23786
H         -0.40912        2.75822        2.40135
C         -2.34802        2.69128        1.48620
H         -2.80813        2.02726        2.21860
H         -2.64248        3.72211        1.70428
O          1.18184        3.26140        0.25954
C          1.79549        2.11842       -0.17385
C          1.17835        0.95096       -0.63812
H          0.10400        0.82003       -0.65672
C          1.96333       -0.10625       -1.09039
H          1.47685       -1.00785       -1.45162
C          3.35031       -0.03427       -1.07174
C          3.96224        1.12233       -0.58348
C          3.19311        2.18895       -0.14103
H          3.66913        3.09250        0.22622
Cl         5.69309        1.26739       -0.53013
Cl         4.28460       -1.38920       -1.63256
C          3.76584       -1.34413        1.93135
N          4.87578       -1.05907        2.11656
H         -2.07543       -0.85836       -0.00135
