41
id_572_cb.log	Energy: -553187.8130164
C          0.51078        1.76234        1.12557
H          1.35629        2.44380        1.27056
H          0.89182        0.83565        0.67810
H          0.09752        1.52372        2.11014
C         -0.53169        2.39038        0.19800
H         -0.99809        3.24048        0.71261
C          0.13087        2.87944       -1.08396
H          0.59403        2.03341       -1.60847
H          0.91707        3.60749       -0.86369
H         -0.59845        3.34340       -1.75440
N         -1.61702        1.46505       -0.17554
H         -1.17669        0.74394       -0.75190
C         -2.24825        0.79951        0.96437
H         -1.57388        0.14002        1.52851
H         -2.59992        1.57335        1.65680
C         -3.45715        0.00014        0.49193
C         -3.10291       -1.15002       -0.45773
H         -2.72587       -0.74964       -1.40347
H         -4.00620       -1.72355       -0.67678
O         -2.17744       -2.06444        0.13393
C         -0.83052       -1.85273       -0.06138
C          0.00682       -2.08235        1.03202
H         -0.43550       -2.38729        1.97540
C          1.37849       -1.89613        0.90667
H          2.02226       -2.05588        1.76819
C          1.93763       -1.47568       -0.30368
C          1.09233       -1.27686       -1.39571
H          1.51191       -0.96082       -2.34714
C         -0.28324       -1.47707       -1.29023
H         -0.91458       -1.33655       -2.16171
C          3.40401       -1.12236       -0.39190
H          3.77915       -1.27984       -1.40658
H          3.99321       -1.72579        0.30313
C          3.54415        0.36020       -0.08050
O          3.18070        1.22135       -0.88833
N          4.03080        0.66385        1.13231
H          4.07986        1.63402        1.41925
H          4.31284       -0.05438        1.78543
O         -4.37251        0.85073       -0.18470
H         -3.80460        1.44897       -0.70529
H         -3.97263       -0.41069        1.36599
