65
id_536_ca.log	Energy: -1751235.6873965
C         -2.88436       -0.99626        2.59885
H         -2.96635       -0.03990        2.07606
H         -3.20113       -1.81466        1.94264
H         -3.50189       -0.97840        3.49637
O         -1.54719       -1.20998        3.05253
C         -0.59435       -1.46889        2.12558
C          0.63890       -1.91139        2.62880
H          0.76886       -2.00095        3.70262
C          1.65284       -2.27272        1.75995
H          2.59226       -2.65635        2.14262
C          1.43578       -2.16734        0.38118
C          0.23095       -1.68558       -0.13044
H          0.07284       -1.60409       -1.20284
C         -0.79327       -1.33452        0.74571
H         -1.73746       -0.97510        0.34912
S          2.67206       -2.75766       -0.73461
O          3.48441       -3.75536       -0.05155
O          2.04187       -3.09699       -2.00943
N          3.66534       -1.46299       -1.15037
C          4.25114       -0.67900       -0.14591
O          4.41588       -1.15561        0.97569
N          4.64296        0.57939       -0.50071
C          4.80694        1.50708        0.63212
H          5.40301        2.35125        0.27665
H          5.35199        1.01336        1.43418
C          3.42709        1.96497        1.10938
H          3.53420        2.69463        1.91959
H          2.89618        1.09093        1.50495
C          2.65528        2.59400       -0.05310
H          3.14330        3.53716       -0.32328
C          2.60252        1.69444       -1.28919
H          2.15733        2.21671       -2.14062
H          2.00750        0.79387       -1.09200
C          4.02600        1.26659       -1.64531
H          4.04971        0.64611       -2.54195
H          4.64912        2.13840       -1.86119
N          1.26853        3.00305        0.40625
H          1.39927        3.47915        1.31071
C          0.33899        1.84570        0.65625
H          0.17005        1.35720       -0.30559
H          0.83740        1.14717        1.33015
C         -0.96996        2.34341        1.24266
H         -0.79632        2.85148        2.19822
H         -1.60100        1.47425        1.44839
C         -1.64517        3.32365        0.28718
H         -2.58972        3.69067        0.69971
C         -0.70170        4.48628        0.01150
H         -1.13904        5.16573       -0.72577
H         -0.55801        5.04703        0.94139
C          0.63921        4.00515       -0.52539
H          0.52303        3.50965       -1.49049
H          1.34516        4.83060       -0.62716
O         -1.87966        2.71323       -0.99911
C         -2.58374        1.54411       -1.06336
C         -2.18859        0.62431       -2.03837
H         -1.33975        0.85507       -2.67524
C         -2.87128       -0.57659       -2.17375
H         -2.56260       -1.30022       -2.92167
C         -3.94424       -0.87406       -1.33343
C         -4.34105        0.05622       -0.37266
C         -3.66871        1.26849       -0.23289
H         -3.99214        1.97530        0.52469
Cl        -5.67877       -0.27061        0.68971
Cl        -4.75080       -2.40519       -1.49560
H          3.35826       -1.03143       -2.01993
