64
id_536_cb.log	Energy: -1750953.9226492
C         -2.90673       -1.22809        2.43384
H         -2.86874       -0.19491        2.07470
H         -3.24605       -1.89309        1.63102
H         -3.58532       -1.29621        3.28396
O         -1.63218       -1.64499        2.91806
C         -0.63106       -1.80140        2.00841
C          0.53154       -2.42317        2.48215
H          0.58093       -2.72594        3.52362
C          1.58741       -2.67021        1.61792
H          2.48072       -3.17119        1.97614
C          1.48530       -2.29053        0.27797
C          0.34497       -1.64126       -0.19095
H          0.26966       -1.33771       -1.23289
C         -0.72143       -1.39179        0.67353
H         -1.61006       -0.89268        0.29938
S          2.81392       -2.65924       -0.86039
O          3.63452       -3.71940       -0.22921
O          2.17062       -3.06259       -2.13192
N          3.60310       -1.30038       -1.17515
C          4.17078       -0.65361       -0.11933
O          4.28861       -1.10041        1.04219
N          4.66662        0.61330       -0.42661
C          4.80861        1.51923        0.71882
H          5.41799        2.36770        0.39305
H          5.33570        1.01485        1.52683
C          3.43299        1.99643        1.19386
H          3.54297        2.71658        2.01283
H          2.88621        1.12722        1.57563
C          2.67749        2.64570        0.03372
H          3.16431        3.59625       -0.21267
C          2.64025        1.76460       -1.21368
H          2.20179        2.30000       -2.06137
H          2.04815        0.86032       -1.03288
C          4.06282        1.32134       -1.56134
H          4.05613        0.67869       -2.43888
H          4.69416        2.18850       -1.77981
N          1.28266        3.04481        0.48728
H          1.40423        3.50515        1.40094
C          0.35276        1.88238        0.71001
H          0.18916        1.41246       -0.26204
H          0.84797        1.17096        1.37159
C         -0.95846        2.36767        1.30252
H         -0.78657        2.86047        2.26643
H         -1.58874        1.49420        1.49424
C         -1.63141        3.36396        0.36212
H         -2.57663        3.72543        0.77817
C         -0.68726        4.53099        0.10686
H         -1.12311        5.22094       -0.62154
H         -0.54788        5.07798        1.04562
C          0.65709        4.05962       -0.43120
H          0.54721        3.57905       -1.40463
H          1.36189        4.88804       -0.51692
O         -1.86383        2.77421       -0.93383
C         -2.57471        1.61085       -1.01799
C         -2.19486        0.71265       -2.01898
H         -1.35063        0.95319       -2.65828
C         -2.88665       -0.48030       -2.17617
H         -2.58951       -1.18784       -2.94386
C         -3.95474       -0.79030       -1.33422
C         -4.33588        0.11863       -0.34735
C         -3.65236        1.32119       -0.18257
H         -3.96358        2.01027        0.59598
Cl        -5.66898       -0.22192        0.71657
Cl        -4.77586       -2.31025       -1.52872
