42
id_583_cb.log	Energy: -826759.8444064
C          4.01705       -1.02802       -0.26022
H          4.60578       -1.92835       -0.40908
C          3.61187       -0.66041        1.02233
H          3.88427       -1.27387        1.87625
C          2.86076        0.49808        1.21172
H          2.55949        0.79055        2.21540
C          2.50342        1.30707        0.12746
C          2.91068        0.92304       -1.15462
H          2.64877        1.54895       -2.00507
C          3.66177       -0.23509       -1.35018
H          3.97539       -0.51356       -2.35195
C          1.69423        2.57434        0.33568
H          1.97198        3.30457       -0.43193
H          1.94559        3.00377        1.31139
N          0.23101        2.43324        0.28943
C         -0.25952        1.54948        1.34674
H          0.12803        0.52393        1.23287
H          0.08750        1.92728        2.31449
C         -1.78274        1.52693        1.35597
H         -2.15881        0.84247        2.11865
H         -2.16504        2.52678        1.58456
N         -2.35050        1.15551        0.04425
C         -1.74209        1.90938       -1.06889
H         -2.12688        2.93097       -0.98540
H         -2.09059        1.49369       -2.01465
C         -0.22144        1.92948       -1.00691
H          0.17128        0.92067       -1.21107
H          0.14931        2.59321       -1.79543
S         -2.76363       -0.42877       -0.18587
O         -3.29013       -0.52828       -1.54755
O         -3.62352       -0.79712        0.93955
C         -1.30945       -1.44209       -0.08771
C         -0.92971       -1.95914        1.14889
H         -1.56534       -1.82650        2.01846
C          0.27973       -2.64249        1.24353
H          0.59177       -3.05360        2.19787
C          1.08527       -2.79621        0.11613
H          2.03050       -3.32338        0.19721
C          0.68535       -2.27975       -1.11686
H          1.31336       -2.40869       -1.99242
C         -0.52270       -1.59869       -1.22762
H         -0.84749       -1.19191       -2.18057
