41
id_503_ca.log	Energy: -907220.7684473
C         -5.37876        0.58409       -0.09418
H         -5.33323       -0.23676        0.62589
H         -5.91350        0.22052       -0.97927
H         -5.96366        1.39627        0.34477
C         -4.00586        1.07733       -0.46907
C         -3.66018        2.42300       -0.31607
H         -4.38159        3.11298        0.11462
C         -2.40596        2.87284       -0.71190
H         -2.11504        3.91146       -0.59312
C         -1.52906        1.95701       -1.28702
H         -0.54829        2.26990       -1.63629
N         -1.83146        0.66701       -1.44803
C         -3.02978        0.23410       -1.02598
C         -3.24997       -1.24470       -1.13977
H         -2.66839       -1.68205       -1.95670
H         -4.29997       -1.52913       -1.25182
S         -2.70049       -2.15300        0.37354
O         -3.40251       -1.50133        1.56292
C         -1.04904       -1.47053        0.44968
N         -0.80255       -0.39874        1.24710
H         -1.49339        0.08723        1.81355
C          0.51192       -0.06402        1.03092
C          1.32129        0.95381        1.54005
H          0.93349        1.67044        2.25774
C          2.63858        1.02965        1.10514
C          3.12454        0.05578        0.17775
C          2.31468       -0.96774       -0.31013
H          2.69891       -1.69755       -1.01464
C          0.98739       -1.01950        0.11221
N         -0.02647       -1.90788       -0.22881
C          4.52468        0.12729       -0.32234
O          5.20108        1.14050       -0.37475
O          4.98677       -1.05871       -0.73830
C          6.30814       -1.05891       -1.29917
H          6.34604       -0.40070       -2.16951
H          6.49817       -2.09002       -1.59154
H          7.03325       -0.73423       -0.55040
C          3.50650        2.13180        1.66061
H          3.73285        2.88330        0.89879
H          4.46107        1.74703        2.03037
H          2.98713        2.62512        2.48576
