31
id_594_ca.log	Energy: -567380.3910847
C          2.49372        2.57359       -0.07328
H          2.75875        3.62445       -0.12534
C          1.63501        2.13908        0.92080
H          1.22287        2.83186        1.64692
C          1.27319        0.78673        0.99042
C          1.80365       -0.13055        0.05425
C          2.66736        0.36633       -0.93290
C          3.01970        1.69137       -1.02431
H          3.68392        2.01682       -1.81547
F          3.17124       -0.49188       -1.83725
C          1.47910       -1.54147        0.22702
N          0.52058       -1.84968        1.09544
C         -0.37284       -0.84081        1.64867
N          0.45623        0.30764        1.99193
H         -0.05308        1.02916        2.49576
C         -1.52756       -0.48637        0.72062
C         -1.56682       -0.83992       -0.62788
H         -0.78035       -1.44301       -1.07104
C         -2.63272       -0.44032       -1.43280
H         -2.68264       -0.70657       -2.48283
C         -3.64637        0.31042       -0.86366
C         -3.64338        0.67356        0.47597
H         -4.46470        1.25492        0.88028
C         -2.57456        0.26643        1.26349
H         -2.55246        0.53661        2.31676
F         -4.67823        0.69725       -1.63459
N          2.12558       -2.50333       -0.40218
H          1.86992       -3.47535       -0.25794
H          2.90856       -2.29642       -1.00777
H         -0.77279       -1.24526        2.57818
H          0.26327       -2.82633        1.21428
