40
id_503_cb.log	Energy: -906931.8315177
C         -5.69480       -0.10753       -0.24435
H         -5.48439       -0.89742        0.48143
H         -6.03370       -0.58921       -1.16910
H         -6.51631        0.50296        0.13910
C         -4.48589        0.75319       -0.50174
C         -4.55574        2.14081       -0.36135
H         -5.48459        2.59774       -0.02882
C         -3.44690        2.92871       -0.64948
H         -3.47775        4.00837       -0.54518
C         -2.28949        2.29664       -1.09196
H         -1.40480        2.87435       -1.34667
N         -2.19211        0.97180       -1.23565
C         -3.25961        0.21666       -0.93445
C         -3.07694       -1.26367       -1.08223
H         -2.33884       -1.50589       -1.85132
H         -4.01002       -1.78662       -1.30656
S         -2.44881       -2.07397        0.45142
O         -3.27150       -1.51401        1.61681
C         -0.83639       -1.28826        0.53306
N         -0.54051       -0.39336        1.47997
C          0.76706       -0.11611        1.17454
C          1.67907        0.76200        1.78485
H          1.38125        1.34524        2.65341
C          2.96648        0.88445        1.28074
C          3.34637        0.09132        0.14897
C          2.45275       -0.79766       -0.45469
H          2.75732       -1.38851       -1.31269
C          1.15782       -0.89571        0.05429
N          0.08967       -1.67084       -0.34282
C          4.70308        0.21304       -0.43418
O          5.46107        1.16014       -0.28454
O          5.04959       -0.84545       -1.18738
C          6.32288       -0.76440       -1.84093
H          6.35122        0.10019       -2.50751
H          6.41526       -1.68703       -2.41159
H          7.12343       -0.69314       -1.10170
C          3.91807        1.83111        1.97491
H          4.15250        2.70129        1.35442
H          4.86792        1.34720        2.22152
H          3.46299        2.18786        2.90297
