46
id_564_cb.log	Energy: -1400525.3154242
C         -4.63126       -3.02314        0.31375
H         -5.65278       -2.98375        0.69652
H         -4.00914       -3.62071        0.98439
H         -4.63029       -3.50572       -0.66778
C         -4.08983       -1.64744        0.20442
C         -2.86133       -1.11947       -0.10033
C         -3.06957        0.29450       -0.01540
N         -4.30641        0.57437        0.30120
O         -4.94318       -0.64239        0.44416
C         -2.13011        1.41791       -0.23897
C         -1.90319        1.89287       -1.52988
C         -1.08228        2.96873       -1.81402
H         -0.95031        3.29050       -2.84148
C         -0.44999        3.60568       -0.74915
H          0.20061        4.45289       -0.94113
C         -0.63524        3.16816        0.56077
H         -0.13995        3.66568        1.38798
C         -1.46944        2.08096        0.80172
Cl        -1.70065        1.53321        2.43989
F         -2.53023        1.26161       -2.54217
C         -1.67356       -1.93005       -0.43155
O         -1.75982       -3.15669       -0.56732
N         -0.50617       -1.26798       -0.59362
H         -0.43784       -0.27918       -0.36105
C          0.72050       -1.95447       -0.87044
C          1.92722       -1.07065       -1.29179
N          2.69295       -1.63958       -0.17449
C          1.59642       -2.28331        0.35223
O          1.41814       -2.83725        1.41829
C          3.58201       -0.73216        0.53953
C          2.83197        0.64041        0.59864
S          1.86087        0.73017       -0.99228
C          1.87834        0.66684        1.79486
H          2.45670        0.60130        2.72414
H          1.16005       -0.15939        1.77863
H          1.31531        1.60490        1.80380
C          3.76232        1.84954        0.65811
H          4.44858        1.88335       -0.19274
H          4.34740        1.81729        1.58343
H          3.17243        2.77233        0.66378
C          4.96116       -0.62939       -0.13639
O          5.01690       -0.78346       -1.38339
O          5.92881       -0.36762        0.62646
H          0.54763       -2.80590       -1.53034
H          2.33390       -1.26918       -2.28179
H          3.71273       -1.10762        1.55779
