60
id_587_cb.log	Energy: -757078.8634401
C         -8.50329        0.18655       -0.08373
H         -9.11506       -0.70700       -0.23616
H         -8.89518        0.98706       -0.71750
H         -8.60597        0.49935        0.96988
N         -7.11924       -0.09401       -0.43998
C         -6.30823        1.10049       -0.21916
H         -6.67579        1.90723       -0.86093
H         -6.39152        1.44086        0.82973
C         -4.84935        0.84029       -0.54406
H         -4.28507        1.75172       -0.34778
H         -4.74667        0.60071       -1.61463
N         -4.31757       -0.26338        0.27024
C         -5.14552       -1.45806        0.11403
H         -4.80131       -2.22481        0.81216
H         -5.06366       -1.86579       -0.90725
C         -6.59970       -1.15006        0.42466
H         -6.68892       -0.86179        1.48854
H         -7.19215       -2.05814        0.27651
C         -2.92728       -0.45949        0.16423
C         -2.04957        0.63365        0.29582
H         -2.44393        1.62590        0.48583
C         -0.67622        0.46503        0.22578
H         -0.04239        1.33770        0.35903
C         -0.10454       -0.80080        0.03161
C         -0.97420       -1.88757       -0.08299
H         -0.56191       -2.87919       -0.23791
C         -2.35452       -1.72800       -0.02909
H         -2.97896       -2.60390       -0.15476
C          1.36644       -0.99740       -0.04516
C          2.18771        0.07827       -0.44895
H          1.72975        1.02369       -0.71090
C          3.56451       -0.07656       -0.51995
C          4.10095       -1.37541       -0.19384
C          5.48077       -1.68788       -0.26529
H          6.19766       -0.94198       -0.59483
C          5.93773       -2.94353        0.05982
H          6.99762       -3.16773       -0.00169
C          5.02773       -3.94355        0.46856
H          5.39394       -4.93248        0.72651
C          3.68421       -3.66931        0.53269
H          2.96793       -4.42638        0.83678
C          3.18071       -2.38435        0.19811
N          1.83119       -2.19481        0.27687
N          4.39378        0.92534       -0.93434
H          5.37104        0.82996       -0.69145
C          3.93058        2.29560       -1.08358
H          3.04147        2.29545       -1.71953
H          4.70307        2.84589       -1.62457
C          3.65937        2.98008        0.25736
H          3.09725        2.29796        0.92147
H          4.62277        3.17266        0.74054
N          2.95425        4.25243        0.10144
C          1.53695        4.00111       -0.14955
H          1.01077        4.95107       -0.27818
H          1.06490        3.45721        0.68814
H          1.39764        3.41562       -1.06188
C          3.06810        5.01292        1.34265
H          2.52334        5.95650        1.24967
H          4.11749        5.23854        1.54969
H          2.65498        4.46294        2.20614
