43
id_583_ca.log	Energy: -827048.2513979
C          4.03057        1.03196        0.20235
H          4.62995        1.92980        0.31877
C          3.61673        0.63021       -1.06705
H          3.89244        1.21266       -1.94069
C          2.85486       -0.52562       -1.21772
H          2.54694       -0.85203       -2.20820
C          2.49673       -1.28651       -0.10014
C          2.91215       -0.87491        1.17002
H          2.64947       -1.47323        2.03906
C          3.67459        0.28115        1.32131
H          3.99785        0.58885        2.31077
C          1.72641       -2.56854       -0.26721
H          1.95901       -3.27733        0.52971
H          1.93317       -3.03349       -1.23324
N          0.22397       -2.39261       -0.22091
C         -0.30401       -1.56563       -1.35313
H          0.12303       -0.56636       -1.24018
H          0.05199       -2.01328       -2.28296
C         -1.82668       -1.55282       -1.31845
H         -2.20316       -0.91036       -2.11583
H         -2.20638       -2.56418       -1.49846
N         -2.36973       -1.11679       -0.02441
C         -1.78244       -1.83463        1.11445
H         -2.16298       -2.86064        1.06932
H         -2.12637       -1.39086        2.04886
C         -0.26047       -1.85410        1.09061
H          0.16845       -0.85643        1.19938
H          0.12386       -2.50514        1.87824
S         -2.76999        0.48746        0.15143
O         -3.32924        0.61787        1.49441
O         -3.58756        0.82575       -1.01060
C         -1.28857        1.45806        0.07011
C         -0.86623        1.94020       -1.16748
H         -1.47993        1.79987       -2.05155
C          0.35602        2.60269       -1.24092
H          0.70157        2.98863       -2.19414
C          1.13014        2.77053       -0.09358
H          2.08344        3.28495       -0.15846
C          0.68914        2.28545        1.13818
H          1.29408        2.42445        2.02825
C         -0.53272        1.62641        1.22996
H         -0.89213        1.24811        2.18259
H         -0.16713       -3.33985       -0.32509
