60
id_529_ca.log	Energy: -1741352.8967307
C          7.47148       -2.07212       -1.20247
H          8.49512       -1.89501       -1.51427
C          6.88077       -1.33484       -0.18393
H          7.44015       -0.55619        0.32550
C          5.56182       -1.61818        0.17230
C          4.81235       -2.61201       -0.45514
H          3.78951       -2.81245       -0.15265
C          5.40223       -3.35055       -1.47532
H          4.86406       -4.13774       -1.99201
C          6.71422       -3.05919       -1.81935
F          7.28671       -3.77533       -2.80495
S          4.81717       -0.67396        1.46730
O          5.83995       -0.24209        2.41612
O          3.65775       -1.40177        1.98253
N          4.32996        0.67821        0.58691
H          4.05500        0.44828       -0.36849
C          3.63595        1.69532        1.27359
O          3.54403        1.64002        2.50284
N          3.18079        2.72244        0.51944
C          2.15638        3.58570        1.12704
H          2.26500        4.57816        0.67800
H          2.34938        3.67131        2.19502
C          0.76837        3.01187        0.84448
H          0.69630        2.03055        1.33151
H          0.01344        3.66614        1.29409
C          0.54214        2.87575       -0.67198
H          0.62642        3.88393       -1.10290
C          1.66502        2.03927       -1.29637
H          1.55561        2.01948       -2.38582
H          1.63139        1.00365       -0.93306
C          3.02408        2.64161       -0.93911
H          3.85470        2.09618       -1.38873
H          3.09020        3.66799       -1.31414
N         -0.79006        2.39033       -1.07188
C         -1.17602        1.13122       -0.42647
H         -1.31332        1.26585        0.66131
H         -0.38310        0.39225       -0.56673
C         -2.47928        0.59735       -1.01648
H         -2.73402       -0.35108       -0.53221
H         -2.35674        0.40707       -2.08986
C         -3.58395        1.62995       -0.82958
H         -3.80045        1.77380        0.23764
C         -3.16184        2.96160       -1.42721
H         -3.92447        3.72085       -1.22421
H         -3.06724        2.85228       -2.51459
C         -1.82698        3.39809       -0.83038
H         -1.51079        4.34111       -1.28646
H         -1.96505        3.58325        0.25005
O         -4.79265        1.23830       -1.50205
C         -5.58022        0.26489       -0.96936
C         -6.67517       -0.12759       -1.75019
H         -6.82904        0.33853       -2.71815
C         -7.54988       -1.09595       -1.28696
H         -8.39847       -1.39840       -1.89231
C         -7.34937       -1.69211       -0.04088
C         -6.26048       -1.29848        0.73111
C         -5.37067       -0.32397        0.27841
H         -4.53609       -0.04913        0.91153
Cl        -5.96689       -2.01210        2.29114
Cl        -8.46403       -2.91011        0.50817
