64
id_540_ca.log	Energy: -1704050.6610548
C          1.89196       -1.63671       -2.11266
H          1.01127       -1.15342       -2.54336
H          2.05186       -2.58564       -2.63426
H          2.75933       -1.00137       -2.31428
C          1.66275       -1.86761       -0.64047
C          0.35642       -1.81795       -0.13993
H         -0.45462       -1.60497       -0.83277
C          0.07449       -2.02066        1.20947
H         -0.95441       -1.97159        1.55489
C          1.10372       -2.27648        2.11360
H          0.89282       -2.42659        3.16732
C          2.41527       -2.34217        1.65412
H          3.23252       -2.54582        2.33770
C          2.67424       -2.14815        0.29620
S          4.37455       -2.28496       -0.21343
O          5.15666       -2.81009        0.89710
O          4.46871       -2.95244       -1.50944
N          4.88643       -0.72067       -0.54351
C          4.74669        0.29518        0.41296
O          4.72103        0.00365        1.60721
N          4.70631        1.57310       -0.06436
C          4.37233        2.59807        0.93781
H          4.91765        2.39586        1.85802
H          4.71190        3.55772        0.53894
C          2.86412        2.61958        1.19165
H          2.62118        3.42692        1.89102
H          2.57216        1.66808        1.65086
C          2.12143        2.83144       -0.12770
H          2.33008        3.84307       -0.49225
C          2.54316        1.81904       -1.19040
H          2.05996        2.02049       -2.15178
H          2.27678        0.80289       -0.87480
C          4.06224        1.87674       -1.35332
H          4.38725        2.87958       -1.64344
H          4.39518        1.20283       -2.14196
N          0.62404        2.81109        0.11727
H          0.47261        3.32110        1.00000
C         -0.14762        3.54969       -0.94202
H          0.29484        4.54293       -1.02969
H         -0.00209        3.00411       -1.87776
C         -1.61914        3.63495       -0.56482
H         -2.15017        4.14762       -1.37183
H         -1.73551        4.22776        0.35094
C         -2.20504        2.24898       -0.34089
H         -2.18428        1.69247       -1.28691
C         -1.40154        1.51613        0.72892
H         -1.49314        2.05558        1.67992
H         -1.76301        0.49504        0.88501
C          0.05454        1.43141        0.30527
H          0.65991        0.91030        1.04852
H          0.14654        0.92274       -0.65781
O         -3.56053        2.44338        0.06989
C         -4.41346        1.37884        0.09454
C         -5.66452        1.61846        0.67463
H         -5.88276        2.60276        1.07625
C         -6.60839        0.60670        0.73323
H         -7.57796        0.79138        1.18462
C         -6.32152       -0.65836        0.21823
C         -5.07695       -0.88917       -0.36041
C         -4.11662        0.12067       -0.42946
H         -3.16170       -0.10366       -0.89017
Cl        -4.67082       -2.44880       -1.01609
Cl        -7.52467       -1.91032        0.32063
H          4.88058       -0.50601       -1.53815
