38
id_52_cb.log	Energy: -1095794.3235516
C         -0.89041        3.58243       -1.77649
H         -0.64743        3.32230       -2.81031
H         -0.21935        4.38700       -1.45329
H         -1.91683        3.96144       -1.74572
C         -0.74922        2.37029       -0.86740
C         -1.18674        2.72575        0.55378
H         -2.24683        2.99769        0.54736
H         -0.60857        3.59045        0.90945
O         -1.05622        1.64131        1.46558
H         -0.11239        1.49616        1.64346
N          0.63678        1.89594       -0.87630
H          1.30294        2.58352       -0.53251
C          0.96863        0.59215       -0.62811
C          2.23327        0.22337       -0.16612
C          2.49845       -1.14080        0.04189
N          3.73639       -1.46581        0.51078
C          4.49544       -0.38652        0.69728
O          5.66429       -0.32902        1.11155
S          3.62893        1.17531        0.26362
N          1.56490       -2.08787       -0.18936
C          0.40397       -1.62150       -0.64292
N          0.05430       -0.36563       -0.88965
S         -0.79156       -2.90087       -0.95597
C         -2.28700       -1.94688       -1.35103
H         -2.07898       -1.29564       -2.20287
H         -2.99165       -2.71433       -1.69233
C         -2.90022       -1.14838       -0.22159
C         -2.88827       -1.58544        1.10614
H         -2.37800       -2.50947        1.36565
C         -3.52231       -0.84312        2.10334
H         -3.50126       -1.19689        3.13044
C         -4.17808        0.34713        1.78752
H         -4.66764        0.92564        2.56578
C         -4.19347        0.79153        0.46504
H         -4.69542        1.71997        0.20607
C         -3.55610        0.04909       -0.52910
H         -3.56613        0.40202       -1.55841
H         -1.36905        1.54963       -1.23387
