58
id_505_cb.log	Energy: -1200594.3700236
C         -1.22944        5.84249        0.15694
H         -0.79084        6.06392        1.13442
H         -0.60022        6.25570       -0.63694
H         -2.23166        6.26353        0.09486
O         -1.38801        4.43654       -0.01309
C         -0.27112        3.67366        0.01783
C          1.00024        4.15272        0.20847
H          1.19468        5.20843        0.35180
C          2.09987        3.26362        0.22023
C          1.87616        1.88365        0.03510
C          0.55832        1.39935       -0.15432
H          0.34982        0.34747       -0.28708
C         -0.50650        2.27124       -0.16761
N         -1.84617        1.90837       -0.34476
H         -2.50688        2.67632       -0.28616
C         -2.35783        0.67087       -0.60751
O         -1.66126       -0.33935       -0.72124
C         -3.83502        0.65519       -0.74078
H         -4.37050        1.59499       -0.62615
C         -4.48319       -0.48317       -0.99250
H         -3.91308       -1.40660       -1.08996
C         -5.96420       -0.57956       -1.18747
H         -6.15442       -0.78748       -2.24861
H         -6.43673        0.39250       -0.95701
N         -6.55914       -1.66414       -0.40875
C         -7.97356       -1.78798       -0.77814
H         -8.50228       -0.83336       -0.58960
H         -8.03057       -1.98247       -1.85414
C         -8.66131       -2.90219        0.00134
H         -9.71117       -2.95944       -0.30460
H         -8.19179       -3.86029       -0.25367
C         -8.54283       -2.65574        1.50458
H         -8.97806       -3.48554        2.07095
H         -9.10858       -1.75107        1.76581
C         -7.07559       -2.45263        1.87902
H         -6.97464       -2.18309        2.93553
H         -6.52287       -3.38758        1.72449
C         -6.44993       -1.35814        1.02282
H         -6.94542       -0.39191        1.24263
H         -5.39104       -1.24088        1.27452
C          3.05606        1.05556        0.05652
N          4.25884        1.57656        0.24931
C          4.32898        2.91473        0.41711
H          5.33285        3.30325        0.57129
N          3.35302        3.78570        0.41428
N          2.92318       -0.28717       -0.13047
H          1.98600       -0.61292       -0.32937
C          3.88280       -1.31086       -0.16570
C          3.42657       -2.57083       -0.58517
H          2.38712       -2.69453       -0.87457
C          4.28355       -3.65811       -0.63625
H          3.93908       -4.63394       -0.96042
C          5.61000       -3.49565       -0.26922
C          6.07151       -2.25701        0.14868
C          5.22224       -1.15723        0.20831
H          5.60103       -0.20199        0.53764
Cl         7.74145       -2.09118        0.60700
F          6.45078       -4.53776       -0.31786
