66
id_506_cb.log	Energy: -1479186.7294564
C          8.15262        1.19818       -0.34071
H          7.73018        2.19026       -0.21142
C          9.47512        0.96284        0.01433
H         10.09140        1.75866        0.41894
C         10.01186       -0.31716       -0.15745
C          9.23124       -1.35527       -0.68115
H          9.66127       -2.34259       -0.81203
C          7.91271       -1.10134       -1.02977
H          7.30136       -1.90088       -1.43950
C          7.35870        0.17425       -0.86739
C          5.91159        0.41967       -1.21793
H          5.65152       -0.11578       -2.13565
H          5.75422        1.48829       -1.38444
C          4.98598       -0.08632       -0.10431
C          5.20992        0.74128        1.16033
O          5.33056        1.95052        1.17807
O          5.20113        0.00092        2.27576
H          5.28725        0.60091        3.04312
N          3.57347       -0.09488       -0.49779
C          2.73862       -0.78796        0.49221
H          3.20641       -1.75053        0.72285
H          2.68194       -0.21575        1.43623
C          1.32479       -0.99584       -0.03821
H          1.35680       -1.64390       -0.92436
H          0.73246       -1.51130        0.72509
C          0.68027        0.33915       -0.41103
H          0.58998        0.94098        0.50493
C          1.61105        1.09994       -1.35948
H          1.21144        2.09959       -1.56552
H          1.67145        0.56511       -2.31640
C          3.01249        1.23355       -0.77404
H          2.96269        1.84496        0.14407
H          3.65899        1.75652       -1.48291
C         -0.69414        0.18302       -1.05689
H         -0.56179       -0.27844       -2.04441
H         -1.11582        1.19270       -1.23158
N         -1.64821       -0.64430       -0.31669
C         -1.91469       -0.07131        1.00483
H         -0.98232       -0.03852        1.57460
H         -2.27782        0.96980        0.91065
C         -2.92977       -0.90654        1.77931
H         -3.13003       -0.44352        2.75039
H         -2.51795       -1.90493        1.96153
C         -4.23284       -1.07170        1.01140
H         -4.90170       -1.74950        1.55286
C         -3.94383       -1.57527       -0.40015
H         -3.58059       -2.60596       -0.32367
H         -4.85516       -1.59098       -1.00627
C         -2.89597       -0.70456       -1.08289
H         -3.30645        0.31202       -1.23390
H         -2.67250       -1.10893       -2.07522
O         -4.83240        0.23741        0.97031
C         -6.12714        0.37289        0.59011
C         -6.58884        1.68890        0.46317
H         -5.90193        2.50679        0.65147
C         -7.90245        1.93615        0.10719
H         -8.25926        2.95598        0.01105
C         -8.78009        0.87876       -0.13301
C         -8.31682       -0.42735       -0.00909
C         -6.99652       -0.69209        0.35062
H         -6.67684       -1.72312        0.43580
Cl        -9.37148       -1.78043       -0.30285
Cl       -10.42553        1.22384       -0.58086
C         11.37880       -0.56910        0.20336
N         12.48281       -0.77311        0.49487
H          5.25339       -1.12147        0.13059
