64
id_533_ca.log	Energy: -1750945.4617696
C          2.52572       -1.34150       -2.69746
H          2.17526       -0.44998       -3.22785
H          2.22176       -2.24281       -3.23906
H          3.61118       -1.31526       -2.60640
O          2.02379       -1.37257       -1.36148
C          0.69641       -1.55905       -1.18725
C          0.27822       -1.78236        0.13491
H          1.01856       -1.77794        0.92985
C         -1.05215       -2.04960        0.40918
H         -1.36982       -2.26501        1.42375
C         -1.97118       -2.06825       -0.64751
C         -1.57494       -1.80658       -1.95749
H         -2.29736       -1.82218       -2.76766
C         -0.23401       -1.55485       -2.23404
H          0.07015       -1.37150       -3.25789
S         -3.65756       -2.50441       -0.34713
O         -4.28468       -2.86279       -1.61815
O         -3.71784       -3.44158        0.76624
N         -4.48088       -1.10376        0.09261
H         -4.83721       -0.62150       -0.73092
C         -4.03507       -0.34247        1.18929
O         -3.43061       -0.89843        2.10597
N         -4.35659        0.97922        1.18559
C         -4.59026        1.70994       -0.07201
H         -5.30225        1.18353       -0.70927
H         -5.07093        2.65272        0.20434
C         -3.26233        1.96736       -0.77968
H         -2.83696        0.99818       -1.07482
H         -3.44134        2.54333       -1.69387
C         -2.29876        2.73460        0.13603
H         -2.74777        3.72380        0.30742
C         -2.17940        2.04839        1.51021
H         -1.66769        1.08129        1.41028
H         -1.59237        2.66482        2.19915
C         -3.55984        1.79916        2.11640
H         -4.10215        2.73797        2.26036
H         -3.49359        1.29255        3.07790
N         -1.01602        2.99333       -0.54190
C         -0.21418        3.98860        0.17899
H          0.10151        3.61174        1.16627
H         -0.83430        4.87432        0.35190
C          1.02478        4.37978       -0.62218
H          1.62955        5.09093       -0.04917
H          0.72533        4.87098       -1.55488
C          1.86629        3.16412       -0.98343
H          2.69196        3.45734       -1.63985
C          0.99601        2.09156       -1.63027
H          0.67146        2.45638       -2.61181
H          1.57517        1.17646       -1.79605
C         -0.21332        1.78274       -0.75550
H         -0.82535        1.01955       -1.24233
H          0.13998        1.35586        0.20053
O          2.40996        2.67579        0.26745
C          3.18845        1.55383        0.23314
C          4.14330        1.31483       -0.75857
H          4.28282        2.01170       -1.57809
C          4.92796        0.16979       -0.69074
H          5.67169       -0.02403       -1.45742
C          4.76992       -0.74071        0.35097
C          3.81634       -0.49214        1.33924
C          3.02183        0.64748        1.28068
H          2.26959        0.83602        2.04066
Cl         3.57667       -1.60576        2.65376
Cl         5.75481       -2.17374        0.38196
