60
id_588_cb.log	Energy: -757079.2208507
C          8.97588       -1.09815       -0.02393
H          9.28482       -1.99866       -0.56218
H          9.66274       -0.28726       -0.28205
H          9.06626       -1.29524        1.05839
N          7.61725       -0.73615       -0.40369
C          7.20812        0.45607        0.33397
H          7.28907        0.28681        1.42377
H          7.87655        1.28341        0.07652
C          5.78185        0.85527       -0.00171
H          5.51865        1.72760        0.60137
H          5.71892        1.14445       -1.06399
N          4.85504       -0.23355        0.30242
C          5.27121       -1.46605       -0.38453
H          4.63055       -2.29439       -0.08280
H          5.17261       -1.33996       -1.47471
C          6.70629       -1.81882       -0.04133
H          6.98954       -2.72374       -0.58786
H          6.77609       -2.04301        1.03934
C          3.48513        0.07271        0.18822
C          3.02193        1.35204       -0.16203
H          3.71814        2.14428       -0.40822
C          1.66016        1.62754       -0.21885
H          1.33293        2.62401       -0.49669
C          0.70126        0.64774        0.04845
C          1.16386       -0.62881        0.39882
H          0.45887       -1.41443        0.65379
C          2.51845       -0.91061        0.47265
H          2.82863       -1.90112        0.78727
C         -0.74794        0.96774       -0.02819
C         -1.67868       -0.06823       -0.27336
H         -1.32424       -1.07854       -0.43234
C         -3.03490        0.21186       -0.33757
C         -3.44079        1.58491       -0.16557
C         -4.78941        2.01230       -0.23275
H         -5.58395        1.29984       -0.43314
C         -5.11752        3.33709       -0.06210
H         -6.15496        3.65026       -0.11759
C         -4.10505        4.29159        0.18060
H         -4.37014        5.33579        0.31485
C         -2.78988        3.90239        0.24237
H         -1.99672        4.62131        0.42335
C         -2.41907        2.54305        0.06778
N         -1.09069        2.23502        0.14096
N         -3.96284       -0.75280       -0.59914
H         -4.91400       -0.56531       -0.30276
C         -3.62347       -2.16341       -0.52943
H         -2.91394       -2.41513       -1.32429
H         -3.13323       -2.40298        0.42495
C         -4.87765       -3.00090       -0.72739
H         -4.60868       -4.06264       -0.58442
H         -5.22492       -2.88526       -1.75962
N         -5.97555       -2.60915        0.15762
C         -7.14278       -3.42662       -0.15664
H         -6.94991       -4.50147        0.00357
H         -7.42855       -3.28203       -1.20228
H         -7.98379       -3.13182        0.47681
C         -5.60787       -2.81726        1.55512
H         -5.28647       -3.85549        1.74936
H         -6.46967       -2.60047        2.19181
H         -4.79842       -2.14307        1.84689
