47
id_576_ca.log	Energy: -909105.2183259
C          5.20604        1.91019       -0.57174
H          6.13694        2.17542       -1.07886
H          4.37961        2.38879       -1.10596
H          5.25011        2.30397        0.44701
C          5.05926        0.40292       -0.58797
H          5.85811       -0.09657       -0.03512
H          5.04096        0.01681       -1.60982
N          3.77804       -0.03633        0.04967
C          3.64810        0.28992        1.51364
H          4.61565        0.07505        1.97549
H          3.40592        1.34766        1.62248
C          2.57139       -0.67457        1.98000
H          2.56909       -0.77426        3.06643
H          1.58477       -0.31872        1.66210
C          2.95518       -1.97245        1.26359
H          2.11800       -2.65998        1.14513
H          3.74348       -2.48078        1.82415
C          3.51920       -1.53364       -0.10222
C          2.62239       -1.78609       -1.31804
H          3.16611       -1.55352       -2.23630
H          2.35830       -2.84516       -1.33695
N          1.41312       -0.98096       -1.30449
H          1.46543       -0.04596       -1.69100
C          0.31069       -1.29684       -0.59158
O          0.10854       -2.41954       -0.12569
C         -0.70188       -0.20477       -0.40510
C         -2.03572       -0.59067       -0.35148
H         -2.28543       -1.63847       -0.48898
C         -3.02563        0.36060       -0.13721
C         -2.70180        1.70097        0.05482
H         -3.48092        2.43805        0.21939
C         -1.37197        2.09550        0.02942
H         -1.12630        3.13800        0.18627
C         -0.36356        1.15153       -0.19827
O          0.94805        1.47661       -0.21247
C          1.31998        2.82098        0.09942
H          0.92106        3.51503       -0.64506
H          0.96933        3.09231        1.09890
H          2.40950        2.83151        0.07055
S         -4.71567       -0.15548       -0.03171
O         -4.86569       -1.36469       -0.83750
O         -5.55459        1.00907       -0.30284
N         -5.03600       -0.60150        1.52557
H         -4.46666       -1.39850        1.81512
H         -4.92560        0.17978        2.17388
H          4.49094       -1.99310       -0.29368
H          3.00575        0.46874       -0.40852
