61
id_521_cb.log	Energy: -1396401.5645341
C          8.70303        2.71864        0.64163
H          9.41186        3.48029        0.95380
C          8.12742        1.86552        1.58647
H          8.38942        1.96165        2.63655
C          7.21750        0.88771        1.18870
H          6.77771        0.22725        1.93072
C          6.86455        0.75177       -0.15990
C          7.44473        1.60938       -1.09813
H          7.17232        1.51409       -2.14694
C          8.36030        2.58702       -0.70313
H          8.79980        3.24668       -1.44614
C          5.89518       -0.32321       -0.61921
C          6.62321       -1.68647       -0.49260
O          6.65707       -2.25152        0.63150
O          7.18234       -2.11146       -1.54211
N          4.61963       -0.29530        0.10421
C          3.97456        1.01211       -0.08147
H          4.63253        1.78970        0.31595
H          3.84037        1.21557       -1.16263
C          2.62300        1.07658        0.61785
H          2.18403        2.06806        0.45247
H          2.77062        0.96094        1.70084
C          1.67773       -0.01651        0.11405
H          1.49576        0.17915       -0.95317
C          2.37932       -1.36768        0.23803
H          1.77895       -2.16148       -0.22043
H          2.49921       -1.62061        1.30135
C          3.74370       -1.34227       -0.44093
H          4.23594       -2.31142       -0.31584
H          3.60428       -1.18136       -1.52847
C          0.35698        0.05763        0.87623
H          0.57120        0.01263        1.95231
H         -0.10070        1.04813        0.68133
N         -0.61082       -1.00304        0.58151
C         -1.81577       -0.76241        1.38211
H         -1.52933       -0.74008        2.43841
H         -2.24013        0.23155        1.14111
C         -2.87722       -1.83337        1.16218
H         -2.49774       -2.81042        1.48374
H         -3.75503       -1.60551        1.77619
C         -3.25411       -1.93797       -0.31293
H         -3.92448       -2.78373       -0.49839
C         -1.99927       -2.07786       -1.16120
H         -1.57221       -3.06830       -0.96586
H         -2.26345       -2.03367       -2.22298
C         -0.96279       -1.00544       -0.84119
H         -1.34016       -0.00907       -1.14263
H         -0.06463       -1.20361       -1.43176
O         -3.90241       -0.72873       -0.75995
C         -5.18032       -0.46904       -0.37914
C         -6.01749       -1.36748        0.28972
H         -5.67878       -2.35487        0.57965
C         -7.32230       -0.98894        0.59456
H         -7.97542       -1.68398        1.11279
C         -7.80534        0.26710        0.24623
C         -6.96133        1.15975       -0.41981
C         -5.65813        0.79864       -0.72846
H         -5.00218        1.49197       -1.24504
Cl        -7.51576        2.74366       -0.87878
Cl        -9.44369        0.69462        0.64855
H          5.71043       -0.16724       -1.69634
