38
id_56_cb.log	Energy: -468880.7041982
C          4.71587       -0.17451       -1.47813
H          4.79971        0.87005       -1.16239
H          4.06114       -0.21695       -2.35445
H          5.71320       -0.50966       -1.77830
C          4.18637       -1.06713       -0.36527
H          4.86670       -1.01118        0.50479
H          4.19724       -2.10687       -0.70926
N          2.81190       -0.74623        0.03095
C          2.32403       -1.74645        0.98690
H          2.56136       -2.73334        0.57563
H          2.85960       -1.66823        1.95050
C          0.82213       -1.66593        1.22441
H          0.27704       -1.73562        0.27695
H          0.52878       -0.73476        1.72025
H          0.50405       -2.49340        1.86625
C          2.72907        0.61210        0.58821
H          2.16624        0.59636        1.52662
H          3.72850        0.99839        0.83598
C          2.03815        1.59156       -0.35676
H          2.56759        1.64996       -1.31010
H          2.02754        2.59003        0.08695
N          0.66357        1.20287       -0.64232
H          0.54047        0.46653       -1.32596
C         -0.30086        1.34458        0.29638
O         -0.09956        1.97645        1.34472
C         -1.62011        0.71338        0.01539
C         -2.49741        0.51311        1.08761
H         -2.19601        0.83007        2.08113
C         -3.72917       -0.09138        0.90207
H         -4.39613       -0.25072        1.74487
C         -4.13091       -0.50919       -0.37876
C         -3.25566       -0.30013       -1.45890
H         -3.55986       -0.60928       -2.45495
C         -2.02185        0.29896       -1.26091
H         -1.38062        0.46062       -2.12270
N         -5.38389       -1.05582       -0.58171
H         -5.46883       -1.63706       -1.40789
H         -5.80020       -1.48603        0.23647
