68
id_510_cb.log	Energy: -1445977.1379093
C          7.76647        1.91679       -0.20451
H          6.79794        2.03019       -0.70335
H          8.50174        2.50827       -0.75557
H          7.66359        2.35276        0.79574
C          8.19770        0.47381       -0.12786
C          9.43618        0.08728       -0.64578
H         10.06724        0.83952       -1.11245
C          9.87475       -1.23372       -0.57322
H         10.84187       -1.50716       -0.98424
C          9.06984       -2.19402        0.03157
H          9.40053       -3.22580        0.10074
C          7.83294       -1.82132        0.55439
H          7.20192       -2.56590        1.03353
C          7.38335       -0.50013        0.48145
C          6.01522       -0.14401        1.01713
H          6.00661        0.86873        1.43067
H          5.74915       -0.83701        1.82012
C          4.95628       -0.21135       -0.09185
C          4.73651       -1.67072       -0.49008
O          4.57559       -2.58421        0.29573
O          4.67894       -1.84600       -1.81652
H          4.48652       -2.78834       -1.99333
N          3.69524        0.44175        0.27331
C          2.76231        0.47953       -0.85984
H          3.29786        0.86641       -1.73298
H          2.40612       -0.53561       -1.11668
C          1.55439        1.35373       -0.54480
H          1.88319        2.38912       -0.38297
H          0.88136        1.35371       -1.40861
C          0.82941        0.85298        0.70403
H          0.44628       -0.15620        0.49383
C          1.83556        0.72203        1.85064
H          1.35553        0.27834        2.73057
H          2.19181        1.72011        2.13765
C          3.02883       -0.13717        1.44650
H          2.67980       -1.16420        1.24182
H          3.74196       -0.18906        2.27303
C         -0.32323        1.75898        1.13088
H          0.09774        2.70788        1.48874
H         -0.83548        1.29218        1.99543
N         -1.29083        2.08321        0.08131
C         -1.94071        0.86830       -0.41644
H         -1.18113        0.20420       -0.83681
H         -2.43019        0.32172        0.41280
C         -2.96625        1.18276       -1.50134
H         -3.43158        0.25223       -1.84156
H         -2.46283        1.63288       -2.36429
C         -4.01789        2.16987       -1.00466
H         -4.69030        2.48088       -1.81112
C         -3.33928        3.38752       -0.39404
H         -2.85415        3.94500       -1.20205
H         -4.09098        4.03946        0.06139
C         -2.30185        2.98140        0.64593
H         -1.79631        3.87362        1.02898
H         -2.80755        2.50259        1.50519
O         -4.80112        1.58587        0.05388
C         -5.72640        0.63963       -0.24432
C         -6.11095        0.26938       -1.53592
H         -5.65907        0.71669       -2.41247
C         -7.09622       -0.69781       -1.70586
H         -7.39727       -0.98782       -2.70684
C         -7.70350       -1.30261       -0.61246
C         -7.31227       -0.92829        0.67549
C         -6.33139        0.03263        0.86085
H         -6.02665        0.32470        1.85972
Cl        -8.03927       -1.65514        2.07918
Cl        -8.93041       -2.50868       -0.87259
H          5.33236        0.30809       -0.97887
