68
id_538_cb.log	Energy: -1763145.8726151
C          2.31551       -2.11788        0.88070
H          2.17167       -1.17596        1.43207
H          3.37613       -2.23931        0.65843
H          2.01538       -2.94735        1.52805
N          1.57655       -2.14509       -0.37189
C          2.28534       -1.76922       -1.58755
H          2.07228       -0.73713       -1.89827
H          2.02133       -2.43689       -2.41418
H          3.35784       -1.86442       -1.40927
C          0.20546       -2.07189       -0.33984
C         -0.50974       -2.21465        0.87481
H          0.01769       -2.31578        1.81560
C         -1.89778       -2.26737        0.88663
H         -2.41871       -2.42058        1.82692
C         -2.61681       -2.15015       -0.30311
C         -1.93444       -1.93053       -1.50315
H         -2.48656       -1.81390       -2.43178
C         -0.54793       -1.88482       -1.52623
H         -0.04821       -1.72888       -2.47537
S         -4.39116       -2.29685       -0.32199
O         -4.76631       -3.14670        0.83424
O         -4.74663       -2.87590       -1.63933
N         -5.01949       -0.82157       -0.31068
C         -4.80754       -0.04612        0.78822
O         -4.41259       -0.43487        1.90841
N         -5.10762        1.30374        0.59030
C         -4.93141        1.83175       -0.76871
H         -5.46401        1.20883       -1.48341
H         -5.37492        2.83217       -0.79228
C         -3.44404        1.89945       -1.11455
H         -3.30349        2.34216       -2.10751
H         -3.04438        0.87672       -1.13838
C         -2.70382        2.74002       -0.07446
H         -2.98502        3.79029       -0.20825
C         -3.00106        2.31935        1.36326
H         -2.58359        1.32937        1.57017
H         -2.56351        3.03171        2.07101
C         -4.51601        2.22301        1.56942
H         -4.99192        3.19877        1.43266
H         -4.73591        1.87892        2.57895
N         -1.21687        2.69014       -0.38596
H         -1.14791        2.65999       -1.41373
C         -0.52158        1.45707        0.12465
H         -0.48703        1.53919        1.21327
H         -1.12125        0.58707       -0.15441
C          0.87809        1.37828       -0.45625
H          0.83123        1.28089       -1.54943
H          1.35454        0.47742       -0.05534
C          1.68104        2.62532       -0.09827
H          1.86314        2.66289        0.98290
C          0.94071        3.88449       -0.52227
H          1.47768        4.77440       -0.18201
H          0.88822        3.91718       -1.61786
C         -0.46815        3.91653        0.05142
H         -1.01745        4.78427       -0.31574
H         -0.47398        3.91923        1.14477
O          2.92773        2.64023       -0.80812
C          3.81868        1.62426       -0.58301
C          4.59287        1.21727       -1.67202
H          4.43867        1.68463       -2.63935
C          5.53915        0.21523       -1.51244
H          6.13454       -0.11401       -2.35814
C          5.72222       -0.38880       -0.26919
C          4.95985        0.03719        0.81751
C          4.00185        1.03755        0.66860
H          3.42053        1.34446        1.53159
Cl         5.17754       -0.66518        2.39337
Cl         6.89171       -1.66548       -0.10918
