45
id_597_cb.log	Energy: -766410.2701136
C          5.31296       -2.41673       -0.07548
H          5.82016       -3.36976        0.03632
C          3.96469       -2.39402       -0.39908
H          3.40918       -3.31553       -0.54246
C          3.29958       -1.16753       -0.53349
C          3.99867        0.04537       -0.35650
C          5.35279       -0.03788       -0.03131
C          6.02806       -1.23412        0.12060
H          7.07959       -1.22588        0.38153
F          6.05485        1.09944        0.14799
C          3.22811        1.28393       -0.60688
N          1.94256        1.30004       -0.69517
C          1.22709        0.06928       -0.38607
N          1.96898       -1.09163       -0.89564
H          1.46553       -1.96579       -0.76634
C          1.00127       -0.04740        1.13591
H          1.96358        0.01414        1.65636
H          0.55855       -1.02860        1.35066
C          0.06049        1.04099        1.64561
H          0.48784        2.03110        1.46526
H         -0.12863        0.93424        2.71259
N         -1.21946        0.97796        0.93200
C         -1.05244        1.17519       -0.51477
H         -2.01851        1.14681       -1.01462
H         -0.62304        2.16882       -0.66657
C         -0.13207        0.10001       -1.09005
H         -0.61719       -0.87826       -0.97171
H          0.02171        0.27849       -2.15869
C         -2.18102        0.17061        1.44898
O         -2.05242       -0.41843        2.52767
C         -3.48455        0.03892        0.71020
C         -4.17369        1.15137        0.21922
H         -3.74436        2.14425        0.30954
C         -5.41854        0.99188       -0.37431
H         -5.96706        1.84831       -0.75079
C         -5.96543       -0.29151       -0.48223
C         -5.28489       -1.40992        0.01128
H         -5.72619       -2.39652       -0.07765
C         -4.04966       -1.23499        0.61942
H         -3.51521       -2.08800        1.02448
C         -7.24983       -0.46244       -1.10432
N         -8.28556       -0.60063       -1.60667
N          3.92350        2.45858       -0.74413
H          3.38159        3.21552       -1.14429
H          4.87864        2.40278       -1.06982
