43
id_584_ca.log	Energy: -473407.5181357
C         -3.55289        3.42394        0.60075
H         -3.61225        4.16186        1.40691
H         -4.57682        3.16361        0.30798
H         -3.07147        3.90380       -0.25904
C         -2.77857        2.18347        1.03920
H         -3.25333        1.73850        1.92251
H         -1.76252        2.47120        1.33511
C         -2.73119        1.13830       -0.07109
H         -2.35661        1.60521       -0.99983
H         -3.75773        0.82114       -0.28237
N         -1.94316       -0.05492        0.26912
C         -2.41961       -1.22255       -0.48471
H         -2.61084       -0.95966       -1.54130
H         -1.63224       -1.98352       -0.49147
C         -3.67337       -1.85470        0.11266
H         -3.43860       -2.21725        1.12109
H         -4.46498       -1.10350        0.22167
C         -4.17861       -3.00755       -0.75111
H         -3.40624       -3.77654       -0.86964
H         -4.45620       -2.65615       -1.75144
H         -5.05880       -3.48240       -0.30634
C         -0.49990        0.19642        0.07678
C         -0.00450        0.12521       -1.37262
H         -0.00757       -0.92000       -1.70902
H         -0.66380        0.68639       -2.04399
C          1.41463        0.68315       -1.46926
H          1.38780        1.77855       -1.37772
H          1.83525        0.47302       -2.45873
C          2.32814        0.12238       -0.40239
C          1.83636       -0.54632        0.72716
C          2.72812       -1.04325        1.68874
H          2.33273       -1.55602        2.56251
C          4.10053       -0.88109        1.53552
H          4.78520       -1.26963        2.28409
C          4.60541       -0.20888        0.42205
H          5.67456       -0.06379        0.28763
C          3.71705        0.28814       -0.52679
O          4.15860        0.97237       -1.63718
H          5.12924        1.02060       -1.62667
C          0.34750       -0.74191        0.93385
H          0.11122       -0.59212        1.99342
H          0.09092       -1.78479        0.70056
H         -0.31817        1.21844        0.43517
