56
id_54_cb.log	Energy: -986247.9351963
C          0.58635        1.50740       -0.09937
H         -0.43501        1.87367       -0.07449
C          1.65950        2.38117       -0.08998
H          1.49239        3.45451       -0.07885
N          2.93499        1.98375       -0.07945
C          3.21615        0.67828       -0.10871
C          2.17779       -0.27955       -0.17724
C          0.85442        0.13736       -0.14682
C         -0.29534       -0.83845       -0.12420
O         -0.37462       -1.70229        0.75097
N         -1.20120       -0.65995       -1.09899
H         -1.07264        0.12285       -1.73001
C         -2.48250       -1.35291       -1.11598
H         -2.73572       -1.56484       -2.15987
H         -2.34395       -2.30725       -0.60055
C         -3.62016       -0.56115       -0.46274
C         -4.90026       -1.41281       -0.53570
H         -5.12328       -1.64806       -1.58575
H         -4.73447       -2.36543       -0.01368
C         -6.08041       -0.66235        0.09856
H         -6.98130       -1.28399        0.03785
C         -5.75847       -0.35877        1.56946
H         -5.60941       -1.29588        2.12153
H         -6.60133        0.16756        2.03585
C         -4.49082        0.50501        1.65165
H         -4.25767        0.71891        2.70127
C         -3.31582       -0.25241        1.01422
H         -2.40222        0.35420        1.08829
H         -3.13118       -1.19108        1.55445
C         -4.71934        1.82185        0.89440
H         -5.54645        2.37864        1.35351
H         -3.82218        2.45172        0.95970
C         -5.04249        1.52197       -0.57706
H         -5.20268        2.46128       -1.11910
C         -6.30898        0.65594       -0.65621
H         -7.15888        1.19510       -0.21812
H         -6.55584        0.44899       -1.70569
C         -3.86560        0.76315       -1.20876
H         -4.07525        0.55181       -2.26682
H         -2.96128        1.38696       -1.17087
Cl         2.54486       -1.96353       -0.43867
N          4.55681        0.28030       -0.11939
C          5.52726        1.33497       -0.42802
H          5.58375        2.06998        0.39035
H          5.20586        1.86178       -1.32942
C          6.89972        0.70896       -0.64598
H          6.85933        0.05024       -1.52069
H          7.62210        1.50114       -0.85976
N          7.38072       -0.07984        0.49353
H          7.47042        0.56511        1.28151
C          6.35819       -1.06181        0.86779
H          6.28913       -1.80716        0.06703
H          6.67384       -1.57752        1.77847
C          4.98414       -0.44817        1.09142
H          5.02889        0.25431        1.94060
H          4.26021       -1.22516        1.33863
