45
id_549_cb.log	Energy: -1628604.3719639
C          6.52813        1.87953        0.08313
H          6.94113        2.88228        0.11948
C          5.18299        1.70708       -0.22349
H          4.55620        2.56364       -0.43790
C          4.62304        0.42426       -0.27501
C          5.45357       -0.68015       -0.03157
C          6.79945       -0.47599        0.25279
C          7.35825        0.78589        0.32446
H          8.41262        0.89338        0.55544
F          7.57379       -1.55439        0.47669
Cl         4.83539       -2.30125       -0.07134
N          3.27787        0.21442       -0.60268
H          3.03867       -0.67679       -1.02569
C          2.23473        1.00249       -0.14980
O          2.40676        1.97392        0.59083
N          1.02019        0.59597       -0.60548
H          0.95502       -0.23312       -1.19517
C         -0.24316        1.09638       -0.25885
C         -0.49224        2.20302        0.51949
H          0.32323        2.78965        0.92057
C         -1.81532        2.56955        0.82627
H         -2.00386        3.41724        1.47506
C         -2.87055        1.84445        0.31965
C         -2.65305        0.73222       -0.53249
C         -1.31725        0.28885       -0.80818
O         -1.00802       -0.75745       -1.47487
S         -3.98324       -0.21033       -1.25358
O         -5.18452        0.62847       -1.30184
O         -3.53556       -0.76245       -2.53540
N         -4.38112       -1.51233       -0.30237
C         -5.06041       -1.24069        0.98122
H         -5.67165       -0.34192        0.88122
H         -5.73705       -2.08860        1.14557
C         -4.09156       -1.13764        2.15493
H         -4.66939       -1.03212        3.07759
H         -3.46211       -0.24543        2.05579
N         -3.20411       -2.30114        2.27155
H         -3.79366       -3.12219        2.42544
C         -2.48882       -2.50002        1.00484
H         -1.80522       -1.65518        0.87021
H         -1.88187       -3.40725        1.07470
C         -3.41590       -2.62660       -0.20051
H         -4.02146       -3.53579       -0.09767
H         -2.85363       -2.69932       -1.13275
Cl        -4.45714        2.35844        0.87000
