46
id_58_cb.log	Energy: -614955.8808787
C         -2.46601        2.74441        0.79206
H         -2.13117        3.72603        0.44000
H         -3.21329        2.90180        1.57993
H         -1.60770        2.23443        1.23908
C         -3.07960        1.93821       -0.35262
H         -2.33466        1.82847       -1.15101
C         -4.29899        2.65669       -0.91629
H         -4.03566        3.66758       -1.24174
H         -4.71668        2.11367       -1.76883
H         -5.07670        2.74174       -0.14766
N         -3.46753        0.57374        0.03683
H         -4.11572        0.65060        0.82420
C         -2.34994       -0.27682        0.45268
H         -1.56670       -0.19758       -0.31238
H         -1.90950        0.00120        1.42108
C         -2.85451       -1.71738        0.50995
C         -1.78061       -2.76051        0.75903
H         -1.33843       -2.64263        1.75105
H         -2.24596       -3.74906        0.71257
O         -0.78991       -2.76068       -0.26628
C          0.42036       -2.15297       -0.06664
C          0.77286       -1.40116        1.05439
H          0.07809       -1.23303        1.86888
C          2.04906       -0.83898        1.12582
H          2.30992       -0.24567        1.99945
C          2.98170       -0.99589        0.10107
C          2.60691       -1.75215       -1.01540
H          3.31210       -1.88693       -1.83228
C          1.34905       -2.33045       -1.09942
H          1.05995       -2.92299       -1.96181
C          4.29666       -0.25612        0.13307
H          5.09083       -0.85057       -0.32753
H          4.58562       -0.05043        1.16850
C          4.19295        1.08793       -0.62617
H          5.10677        1.67057       -0.48879
H          4.02712        0.91013       -1.69080
C          3.03254        1.84993       -0.04776
O          3.04439        2.40422        1.03503
O          1.93551        1.76738       -0.80872
C          0.72647        2.24730       -0.20561
H          0.53308        1.69170        0.71602
H         -0.05906        2.06332       -0.93727
H          0.80298        3.31446        0.01339
O         -3.48875       -2.03679       -0.71941
H         -3.91140       -1.19735       -0.98676
H         -3.57448       -1.80080        1.34112
