65
id_589_cb.log	Energy: -928181.2289247
C         -8.20621       -2.12311        0.82077
H         -9.23667       -2.20972        1.16529
H         -7.53109       -2.53371        1.57919
H         -8.08530       -2.67955       -0.11478
O         -7.97277       -0.73631        0.62496
C         -6.72847       -0.37068        0.18965
C         -6.52438        1.00214        0.00536
H         -7.34391        1.68426        0.20970
C         -5.29413        1.46610       -0.43390
H         -5.14683        2.53463       -0.57494
C         -4.23851        0.58410       -0.70536
C         -4.46249       -0.77815       -0.51795
H         -3.66361       -1.48293       -0.73398
C         -5.69401       -1.26707       -0.07376
H         -5.83040       -2.33434        0.05619
C         -2.88909        1.10643       -1.13772
H         -3.00969        1.88623       -1.89919
H         -2.31955        0.28646       -1.58789
C         -2.13495        1.68832        0.06036
H         -1.92677        0.86660        0.77314
H         -2.79345        2.39531        0.57919
N         -0.90092        2.40245       -0.27419
C          0.04752        1.49618       -0.93376
H          0.21602        0.60483       -0.30364
H         -0.38627        1.14553       -1.87386
C          1.38099        2.17429       -1.22839
H          1.22427        3.00217       -1.92951
H          2.05408        1.45446       -1.70798
C          2.02355        2.72594        0.04828
H          2.90855        3.31379       -0.20184
C          1.00562        3.60719        0.76903
H          1.40311        3.94070        1.73257
H          0.82822        4.49567        0.15372
C         -0.31578        2.87785        0.98433
H         -1.03256        3.54975        1.46720
H         -0.16883        2.02790        1.68145
N          2.47650        1.65304        0.94784
H          1.71609        1.10320        1.33889
C          3.55321        0.90098        0.56437
N          4.51649        1.29912       -0.24118
C          5.39652        0.22597       -0.28364
C          6.59253        0.07641       -0.98722
H          6.96773        0.88125       -1.61195
C          7.27986       -1.12900       -0.86849
H          8.21078       -1.26698       -1.40966
C          6.79235       -2.17164       -0.06616
H          7.34988       -3.10041        0.00074
C          5.60334       -2.03871        0.64933
H          5.22464       -2.84347        1.27185
C          4.92927       -0.82915        0.52611
N          3.75212       -0.35648        1.09410
C          2.73803       -1.15650        1.76242
H          3.22886       -2.07134        2.10582
H          2.38820       -0.63155        2.65682
C          1.56722       -1.48072        0.85418
C          0.27841       -1.56619        1.38420
H          0.12090       -1.39207        2.44540
C         -0.81310       -1.85770        0.56695
H         -1.82258       -1.91720        0.96110
C         -0.58345       -2.05194       -0.78520
C          0.68093       -1.97165       -1.34864
H          0.80688       -2.12708       -2.41474
C          1.75836       -1.68368       -0.51604
H          2.75522       -1.60817       -0.94409
F         -1.63243       -2.31185       -1.59449
