57
id_574_cb.log	Energy: -1023241.2679719
C          3.26011       -3.59068        0.32593
H          4.10753       -2.97208        0.63104
H          3.52146       -4.07890       -0.61876
H          3.08536       -4.35630        1.08037
C          2.00030       -2.79436        0.16886
N          0.94147       -3.19266        0.80115
C         -0.23272       -2.48723        0.61686
C         -1.39378       -2.89218        1.30136
H         -1.33802       -3.75425        1.95800
C         -2.57832       -2.20936        1.12464
H         -3.46879       -2.55039        1.64446
C         -2.66537       -1.09191        0.26205
C         -1.52114       -0.68986       -0.41272
H         -1.53485        0.17586       -1.06784
C         -0.31484       -1.38092       -0.24002
C          0.88777       -0.94109       -0.94033
O          0.91889        0.01989       -1.70933
N          2.02763       -1.69635       -0.67817
C          3.28760       -1.25420       -1.30359
H          3.86718       -2.13983       -1.56567
H          3.01793       -0.74905       -2.23214
C          4.11602       -0.32359       -0.41689
C          5.46779       -0.06419       -1.08658
H          6.01491       -1.00538       -1.21381
H          5.28622        0.34543       -2.09095
C          6.28639        0.93767       -0.27424
H          7.20532        1.20267       -0.80751
H          6.57775        0.48624        0.68171
C          5.47365        2.19898       -0.00151
H          6.04946        2.89229        0.62054
H          5.27565        2.70692       -0.96363
N          4.23124        1.86980        0.69909
C          3.40963        1.00679       -0.14927
H          2.45187        0.83049        0.35018
H          3.19107        1.48247       -1.12320
C          3.51413        3.08122        1.14641
H          4.27958        3.70491        1.62444
C          2.47003        2.74558        2.20844
H          2.05741        3.66917        2.62656
H          2.91052        2.16567        3.02463
H          1.63431        2.17474        1.78993
C          2.87546        3.90320        0.02113
H          2.50671        4.85307        0.42099
H          2.02260        3.37520       -0.41974
H          3.58856        4.13079       -0.77757
C         -3.94938       -0.36975        0.08902
C         -4.84968       -0.24473        1.15455
H         -4.60362       -0.66396        2.12549
C         -6.05372        0.43426        1.00253
H         -6.74119        0.53231        1.83578
C         -6.35801        0.99533       -0.23237
C         -5.48715        0.88900       -1.31086
H         -5.74400        1.32560       -2.27001
C         -4.28838        0.20492       -1.14256
H         -3.61816        0.10257       -1.99068
Cl        -7.86965        1.85436       -0.43345
H          4.28951       -0.81244        0.55124
