59
id_562_ca.log	Energy: -1452724.4895364
C         -0.78029       -1.29581        2.60027
H         -0.74990       -0.95733        3.63134
C         -2.01639       -1.44791        1.95437
H         -2.94171       -1.23128        2.47974
C         -2.04445       -1.88815        0.64535
H         -2.98406       -2.03623        0.12387
C         -0.84926       -2.15478       -0.03852
C          0.40325       -1.99950        0.59999
C          0.40699       -1.57379        1.94520
H          1.34961       -1.45307        2.46384
C          1.60994       -2.21104       -0.18784
C          1.48447       -2.60748       -1.47882
H          2.33052       -2.79838       -2.12927
N          0.26294       -2.81025       -2.05630
H          0.22090       -3.11839       -3.02379
C         -0.94467       -2.57696       -1.44016
O         -2.00114       -2.72434       -2.05885
C          2.95682       -1.87492        0.36193
O          3.28907       -2.12605        1.52359
N          3.78089       -1.19862       -0.47637
H          3.49338       -1.04208       -1.43500
C          5.07383       -0.69546       -0.03543
H          5.61497       -1.49131        0.48639
H          5.64714       -0.40895       -0.92003
C          4.97161        0.50206        0.92149
C          4.48155        1.80181        0.28005
H          5.16855        2.09116       -0.51913
H          4.44690        2.59431        1.03160
N          3.11898        1.72389       -0.32994
C          2.76850        2.99473       -1.05800
H          3.59396        3.21844       -1.73448
H          2.70260        3.77446       -0.29434
C          1.46638        2.81008       -1.82234
H          1.22288        3.74855       -2.32703
H          1.60222        2.03944       -2.59053
C          0.32492        2.38367       -0.90715
H          0.04656        3.21706       -0.25012
C          0.73150        1.16422       -0.08970
H         -0.03371        0.89136        0.64243
H          0.84900        0.31714       -0.77955
C          2.03234        1.39744        0.65485
H          2.32284        0.51075        1.21853
H          1.97954        2.24722        1.34147
O         -0.76391        2.05244       -1.77861
C         -1.90556        1.54099       -1.22744
C         -2.62720        0.63705       -2.00956
H         -2.24558        0.35624       -2.98526
C         -3.81422        0.10315       -1.53156
H         -4.37293       -0.60891       -2.12971
C         -4.28287        0.44966       -0.26591
C         -3.55279        1.34550        0.51275
C         -2.36877        1.90075        0.03741
H         -1.82396        2.60148        0.65993
Cl        -4.08787        1.79032        2.10621
Cl        -5.74430       -0.28171        0.32803
O          6.27389        0.83748        1.37124
H          6.56760        0.13193        1.97009
H          4.33632        0.23190        1.77229
H          3.12681        0.97487       -1.03335
