46
id_500_ca.log	Energy: -899132.5674068
C          7.96816       -1.81655        0.38206
H          8.12892       -2.86613        0.60719
C          9.05594       -0.97569        0.16296
H         10.06984       -1.35849        0.21428
C          8.83818        0.37352       -0.12546
H          9.65370        1.06705       -0.30388
C          7.53938        0.83073       -0.18507
C          6.42743        0.01129        0.03047
C          6.65856       -1.33589        0.31928
H          5.82364       -2.00175        0.49345
N          5.16813        0.61795       -0.05905
H          5.14299        1.61657       -0.24843
C          3.96894        0.01527        0.03680
N          3.64943       -1.23737        0.24282
N          2.26518       -1.26802        0.23695
C          1.85862       -0.06547        0.03517
O          2.88596        0.81283       -0.10153
C          0.47306        0.46144       -0.06537
O          0.28127        1.66443       -0.23039
N         -0.47032       -0.49426        0.04190
H         -0.14084       -1.45433        0.12314
C         -1.86989       -0.33270       -0.03178
C         -2.64265       -1.48343       -0.19599
H         -2.15507       -2.45124       -0.27472
C         -4.03042       -1.40412       -0.25087
H         -4.59531       -2.32102       -0.37398
C         -4.70077       -0.17676       -0.15876
C         -3.88140        0.94883       -0.00785
C         -2.50279        0.91066        0.06936
H         -1.95605        1.83566        0.19368
F         -4.46746        2.16885        0.04666
N         -6.10262       -0.02410       -0.24702
C         -6.71138        0.50270        0.98932
H         -6.21018        1.42360        1.29107
H         -6.60317       -0.23608        1.80057
C         -8.18245        0.79168        0.75798
H         -8.65318        1.11555        1.68864
H         -8.29866        1.58154        0.00173
O         -8.87587       -0.37537        0.32905
C         -8.29645       -0.88491       -0.86720
H         -8.40840       -0.14247       -1.67036
H         -8.85628       -1.78455       -1.13139
C         -6.83078       -1.22415       -0.66410
H         -6.41460       -1.59590       -1.60482
H         -6.75149       -2.02190        0.09325
F          7.29956        2.13565       -0.46571
