60
id_524_ca.log	Energy: -1679094.2442998
C         -2.59705       -1.73955       -1.88282
H         -3.59809       -1.51742       -2.24268
C         -2.37516       -2.87188       -1.09635
H         -3.20302       -3.52399       -0.83389
C         -1.09184       -3.16538       -0.64359
H         -0.90842       -4.04216       -0.02912
C         -0.03035       -2.31556       -0.96998
C         -0.25202       -1.18153       -1.75956
H          0.57903       -0.54632       -2.05325
C         -1.53711       -0.89408       -2.21413
H         -1.70739       -0.02056       -2.83719
C          1.33257       -2.66849       -0.48007
O          1.70611       -3.82044       -0.29888
N          2.16656       -1.59245       -0.24836
H          1.75426       -0.66428       -0.16618
S          3.74608       -1.79533        0.35344
O          4.48700       -2.48823       -0.68975
O          3.64289       -2.41073        1.66893
N          4.35308       -0.30087        0.53148
C          4.68622        0.50634       -0.66357
H          5.03424       -0.15725       -1.45618
H          5.52775        1.13675       -0.35843
C          3.50163        1.34842       -1.12337
H          3.82579        1.98984       -1.95040
H          2.74997        0.66707       -1.53182
C          2.92351        2.21836        0.00228
H          3.68382        2.97690        0.23878
C          2.69831        1.41078        1.30014
H          2.54998        2.09443        2.14129
H          1.78645        0.80355        1.24221
C          3.89482        0.53733        1.66007
H          3.68366       -0.10216        2.51756
H          4.75640        1.16288        1.91544
N          1.73265        2.96937       -0.46038
C          0.68781        2.10371       -1.02668
H          1.09063        1.58372       -1.89593
H          0.35500        1.33243       -0.30701
C         -0.51963        2.90328       -1.50269
H         -1.26382        2.21353       -1.91543
H         -0.22473        3.58303       -2.31061
C         -1.10161        3.74202       -0.37572
H         -1.95240        4.34389       -0.71252
C         -0.00426        4.62989        0.19470
H          0.28695        5.34869       -0.57926
H         -0.38419        5.19470        1.05270
C          1.19250        3.79205        0.63239
H          1.99502        4.44476        0.99365
H          0.87299        3.17041        1.48178
O         -1.52392        2.89481        0.71824
C         -2.44817        1.91937        0.49215
C         -3.49111        2.02973       -0.43170
H         -3.58391        2.90216       -1.06951
C         -4.43171        1.00901       -0.52532
H         -5.24770        1.08976       -1.23695
C         -4.34667       -0.11702        0.28891
C         -3.28924       -0.22998        1.19340
C         -2.33800        0.77864        1.29087
H         -1.51350        0.69382        1.99234
Cl        -3.12737       -1.62666        2.21578
Cl        -5.55060       -1.36400        0.14609
