47
id_564_ca.log	Energy: -1400803.6497090
C          4.66457        3.01707        0.31692
H          5.68312        2.97719        0.70742
H          4.03854        3.61885        0.98010
H          4.67210        3.49519       -0.66681
C          4.12092        1.64225        0.20922
C          2.89164        1.11665       -0.09668
C          3.09630       -0.29779       -0.00983
N          4.33196       -0.58000        0.30893
O          4.97123        0.63557        0.45164
C          2.15443       -1.41867       -0.23625
C          1.92740       -1.88943       -1.52882
C          1.10322       -2.96179       -1.81679
H          0.97159       -3.28049       -2.84525
C          0.46752       -3.59947       -0.75437
H         -0.18548       -4.44413       -0.94936
C          0.65279       -3.16617        0.55697
H          0.15524       -3.66460        1.38228
C          1.49053       -2.08250        0.80203
Cl         1.72160       -1.54072        2.44224
F          2.55731       -1.25734       -2.53853
C          1.70650        1.92935       -0.42955
O          1.79436        3.15397       -0.57455
N          0.53536        1.26851       -0.58129
H          0.46800        0.28182       -0.34103
C         -0.68871        1.95519       -0.86078
C         -1.89318        1.07620       -1.29842
N         -2.67420        1.65105       -0.19051
C         -1.57201        2.28725        0.35611
O         -1.40785        2.82842        1.42602
C         -3.54421        0.73806        0.52624
C         -2.80333       -0.64130        0.58646
S         -1.84272       -0.72687       -1.00731
C         -1.85660       -0.66311        1.78720
H         -2.43927       -0.59525        2.71326
H         -1.13532        0.15997        1.77294
H         -1.29869       -1.60374        1.79709
C         -3.74593       -1.84154        0.64942
H         -4.41777       -1.88989       -0.21272
H         -4.34377       -1.79113        1.56648
H         -3.16222       -2.76695        0.67968
C         -4.87767        0.63026       -0.19929
O         -4.98576        0.76112       -1.39954
O         -5.95549        0.34514        0.53627
H         -5.76011        0.28403        1.49025
H         -0.51310        2.81009       -1.51568
H         -2.28590        1.27921       -2.29303
H         -3.69533        1.11433        1.54274
