28
id_595_ca.log	Energy: -454470.5581044
C          3.59243        1.91946        0.31445
H          3.76189        2.36551       -0.67123
H          4.55884        1.55899        0.68250
H          3.23018        2.69712        0.99120
C          2.60239        0.79895        0.23028
C          1.43487        0.78070        0.91233
H          1.14687        1.59646        1.56824
N          0.52860       -0.25476        0.84954
C          0.74489       -1.34306        0.04088
O         -0.05677       -2.27176       -0.06170
N          1.93575       -1.32782       -0.64701
H          2.11383       -2.13610       -1.24107
C          2.90283       -0.33470       -0.62182
O          3.92986       -0.45903       -1.29637
C         -0.76080       -0.17632        1.55240
H         -0.92738       -1.12316        2.06970
H         -0.65246        0.60781        2.30515
C         -1.91190        0.12605        0.61915
C         -1.87701        1.24989       -0.21296
H         -1.00851        1.90604       -0.20303
C         -2.95029        1.53541       -1.05518
H         -2.91477        2.41079       -1.69735
C         -4.07057        0.70134       -1.06964
H         -4.90729        0.92519       -1.72508
C         -4.10994       -0.41995       -0.24169
H         -4.97580       -1.07580       -0.25183
C         -3.03112       -0.70780        0.59605
H         -3.05522       -1.58832        1.23416
