68
id_542_cb.log	Energy: -1763101.5693296
C         -0.06080       -0.89440        1.63088
H         -0.42241        0.12648        1.47750
H          0.67134       -0.89226        2.44393
H         -0.92070       -1.51480        1.92200
N          0.57703       -1.34487        0.39052
C         -0.40127       -1.34825       -0.70879
H         -0.77170       -0.32850       -0.85840
H         -1.25475       -2.00627       -0.48001
H          0.07430       -1.69059       -1.62877
C          1.21413       -2.62232        0.51063
C          0.65441       -3.68146        1.22679
H         -0.30442       -3.54570        1.71693
C          1.30537       -4.91020        1.30982
H          0.84601       -5.71857        1.86956
C          2.53110       -5.10906        0.68092
H          3.03672       -6.06592        0.74829
C          3.11575       -4.06672       -0.03003
H          4.07840       -4.19294       -0.51280
C          2.45683       -2.84233       -0.10539
S          3.26625       -1.56392       -1.03922
O          4.61607       -2.01291       -1.36651
O          2.41485       -1.12326       -2.14451
N          3.38901       -0.36374        0.14138
H          2.49144       -0.30423        0.63585
C          3.95988        0.85981       -0.28287
O          4.52739        0.93593       -1.36892
N          3.88519        1.88452        0.61003
C          2.97293        1.83459        1.75949
H          3.04787        0.86547        2.25699
H          3.32703        2.58493        2.47235
C          1.54951        2.14688        1.30977
H          0.87962        2.12416        2.17572
H          1.22395        1.35496        0.62399
C          1.47225        3.50500        0.58921
H          1.70619        4.28301        1.32906
C          2.53862        3.59983       -0.51068
H          2.30422        2.91663       -1.33664
H          2.55705        4.61591       -0.91697
C          3.92489        3.23386        0.02221
H          4.23593        3.92170        0.81366
H          4.67562        3.25679       -0.76590
N          0.13170        3.83014        0.06487
C         -0.43334        2.74573       -0.74656
H          0.27854        2.46455       -1.52717
H         -0.62274        1.84335       -0.13943
C         -1.75217        3.16334       -1.38112
H         -2.12018        2.35372       -2.01757
H         -1.60882        4.04318       -2.01745
C         -2.76065        3.52993       -0.29531
H         -3.70892        3.87378       -0.72308
C         -2.15705        4.59837        0.60834
H         -2.04663        5.51661        0.02235
H         -2.83669        4.80774        1.44032
C         -0.79777        4.15978        1.15181
H         -0.94808        3.30393        1.83135
H         -0.36302        4.97126        1.74384
O         -3.02117        2.41136        0.57940
C         -3.54618        1.26367        0.08045
C         -4.22728        1.16138       -1.13522
H         -4.37431        2.02606       -1.77139
C         -4.72639       -0.07200       -1.53849
H         -5.24890       -0.15807       -2.48521
C         -4.56789       -1.20222       -0.74448
C         -3.90830       -1.08715        0.48121
C         -3.39650        0.13479        0.89193
H         -2.87866        0.22605        1.84070
Cl        -3.69828       -2.47027        1.51610
Cl        -5.19592       -2.72834       -1.29530
