47
id_550_ca.log	Energy: -1629149.4157386
C          6.37093        1.82996        0.86984
H          6.71171        2.78997        1.24199
C          5.08081        1.71761        0.36597
H          4.42768        2.57850        0.33569
C          4.61387        0.48937       -0.11794
C          5.48521       -0.60955       -0.10251
C          6.77613       -0.46337        0.39137
C          7.23774        0.74116        0.88858
H          8.25067        0.80723        1.26851
F          7.58202       -1.53162        0.38841
Cl         4.98797       -2.16870       -0.68516
N          3.33253        0.32743       -0.65774
H          3.19862       -0.46030       -1.28238
C          2.20703        0.99953       -0.23476
O          2.21351        1.85383        0.64432
N          1.07821        0.61202       -0.91533
H          1.13625       -0.20463       -1.51538
C         -0.22029        1.05375       -0.64322
C         -0.52964        2.28305       -0.08246
H          0.26190        2.96938        0.18260
C         -1.85733        2.64379        0.13641
H         -2.08961        3.60674        0.57581
C         -2.88379        1.78923       -0.21553
C         -2.60557        0.54113       -0.81203
C         -1.26193        0.17495       -1.02099
O         -0.83738       -0.99252       -1.55099
H         -1.58376       -1.47079       -1.97290
S         -3.89195       -0.65032       -1.18128
O         -3.30089       -1.58987       -2.14309
O         -5.11675        0.03058       -1.55754
N         -4.21461       -1.54041        0.16667
C         -3.17389       -2.44799        0.67837
H         -2.48724       -2.72498       -0.12213
H         -3.68542       -3.35800        1.00906
C         -2.39276       -1.84952        1.83738
H         -1.72642       -2.59374        2.27296
H         -1.81861       -0.96543        1.55073
N         -3.35053       -1.41059        2.90234
H         -3.85943       -2.22835        3.26582
C         -4.32852       -0.40312        2.38093
H         -5.00765       -0.14187        3.19222
H         -3.74110        0.47286        2.09959
C         -5.09662       -1.00606        1.21488
H         -5.69961       -1.84749        1.57246
H         -5.77511       -0.26710        0.78824
Cl        -4.50356        2.34499        0.12237
H         -2.83001       -1.00801        3.69038
