53
id_559_ca.log	Energy: -1506762.4258115
C         -2.77608       -1.98771        0.46153
H         -2.05505       -2.73446        0.77193
C         -3.98003       -1.88764        1.15395
H         -4.17642       -2.55412        1.98782
C         -4.93727       -0.94604        0.79427
C         -4.68079       -0.08957       -0.27993
C         -3.48518       -0.17511       -0.97821
H         -3.28376        0.49056       -1.81141
C         -2.52911       -1.12599       -0.60990
O         -1.40370       -1.14054       -1.37909
C         -0.27943       -1.92676       -0.97064
H         -0.60718       -2.94826       -0.73944
C          0.42077       -1.29515        0.22708
H         -0.20350       -1.32223        1.12500
H          0.62247       -0.24238       -0.00623
C          1.72095       -2.01745        0.54720
H          1.55226       -3.06601        0.81373
H          2.25090       -1.52927        1.36375
N          2.63185       -2.03616       -0.64843
H          2.81803       -1.05436       -0.93441
C          1.94665       -2.69592       -1.81299
H          1.75949       -3.73205       -1.51462
H          2.64827       -2.68330       -2.64828
C          0.66431       -1.96061       -2.16198
H          0.89602       -0.93291       -2.46908
H          0.19281       -2.46963       -3.00753
C          3.94218       -2.70697       -0.38242
H          4.46626       -2.73956       -1.34067
H          3.71305       -3.73145       -0.07285
C          4.86737       -2.05175        0.64197
C          5.16785       -0.56485        0.42845
H          6.10674       -0.33646        0.93725
H          5.29522       -0.35513       -0.63586
N          4.16182        0.33699        0.97143
H          4.18319        0.49044        1.97369
C          3.24597        0.98291        0.23337
O          3.11729        0.78313       -0.99048
C          2.35592        1.92954        0.93016
C          2.28863        2.24274        2.27965
H          2.85733        1.90389        3.13516
N          1.29688        3.13536        2.41237
N          0.69913        3.44563        1.25987
C          1.32997        2.71874        0.35167
C          0.90749        2.84192       -1.08041
F          1.91860        3.22729       -1.87769
F         -0.06629        3.75560       -1.21992
F          0.42718        1.68903       -1.57991
O          4.43365       -2.20437        1.98530
H          4.40547       -3.15159        2.19902
Cl        -5.84537        1.10602       -0.76887
Cl        -6.42569       -0.85500        1.69049
H          5.82130       -2.57635        0.50117
H          0.98310        3.57563        3.27253
