37
id_502_ca.log	Energy: -850909.5431833
C         -4.18951        2.78253        0.37505
H         -4.91565        3.51828        0.70365
C         -2.97198        3.21502       -0.16568
H         -2.77353        4.27827       -0.24643
C         -2.00357        2.31151       -0.60201
H         -1.05745        2.64255       -1.01724
C         -2.30398        0.96558       -0.46752
C         -3.52367        0.53258        0.07710
C         -4.49175        1.42819        0.50487
H         -5.43044        1.08309        0.92349
N         -3.47871       -0.85842        0.04176
C         -4.18247       -2.00203        0.63194
H         -4.09864       -1.95727        1.72007
H         -5.22974       -2.01983        0.33576
C         -3.37508       -3.17011        0.02512
H         -3.84166       -3.53476       -0.89241
H         -3.24942       -3.99029        0.72857
N         -2.06216       -2.55203       -0.29071
C         -2.27758       -1.23770       -0.40801
N         -1.55740       -0.18241       -0.81120
C         -0.13757       -0.19446       -1.08802
H          0.12192       -1.10997       -1.62810
H          0.09977        0.65037       -1.73978
C          0.65163       -0.10772        0.21776
O          0.05970       -0.09695        1.28139
C          2.13323       -0.04784        0.13473
C          2.80696       -0.08706       -1.09013
H          2.26375       -0.15930       -2.02671
C          4.19556       -0.03578       -1.12848
H          4.72498       -0.06711       -2.07399
C          4.89546        0.05633        0.07002
C          4.24669        0.09782        1.30219
H          4.81757        0.16977        2.22121
C          2.86103        0.04412        1.32625
H          2.33246        0.07335        2.27312
Cl         6.63847        0.12119        0.03002
H         -1.40806       -3.01756       -0.91264
