59
id_531_cb.log	Energy: -1741077.2226907
C          0.64385       -1.43298        2.84747
H          0.80253       -1.28830        3.91109
C          1.63514       -1.96923        2.02747
H          2.59103       -2.26101        2.44860
C          1.38224       -2.14406        0.66730
C          0.15415       -1.78651        0.10737
H         -0.03143       -1.92930       -0.95335
C         -0.84509       -1.26047        0.92196
H         -1.82000       -0.98993        0.52751
C         -0.57160       -1.09723        2.27161
F         -1.54385       -0.59354        3.06519
S          2.64671       -2.83090       -0.40400
O          3.50001       -3.69425        0.44494
O          1.92531       -3.55695       -1.47339
N          3.39132       -1.60600       -1.11106
C          4.06427       -0.73079       -0.30407
O          4.36733       -0.92654        0.89295
N          4.44533        0.44794       -0.93281
C          3.61817        0.92921       -2.04900
H          4.17788        1.73063       -2.54325
H          3.47415        0.12747       -2.77108
C          2.28038        1.44726       -1.52334
H          1.75429        0.59570       -1.07246
H          1.66842        1.80993       -2.35757
C          2.48284        2.56008       -0.47841
H          2.91479        3.42582       -1.00097
C          3.49247        2.13308        0.59448
H          3.74420        2.99621        1.22113
H          3.05491        1.36737        1.24714
C          4.76635        1.56037       -0.02872
H          5.46080        1.22055        0.73892
H          5.27559        2.32364       -0.62659
N          1.23647        3.04916        0.14783
C          0.39105        1.96149        0.65539
H         -0.00724        1.34566       -0.16947
H          0.98702        1.29795        1.29035
C         -0.78472        2.51382        1.44881
H         -0.42767        3.11119        2.29589
H         -1.37088        1.68663        1.86068
C         -1.63949        3.41933        0.56572
H         -2.45793        3.87773        1.13185
C         -0.76101        4.49018       -0.06944
H         -1.34902        5.07466       -0.78523
H         -0.42886        5.16881        0.72422
C          0.45244        3.88140       -0.77202
H          1.09579        4.68469       -1.14508
H          0.11164        3.30186       -1.64704
O         -2.19944        2.68585       -0.54853
C         -2.98098        1.59762       -0.31804
C         -3.71521        1.38728        0.85275
H         -3.68590        2.09994        1.66964
C         -4.49116        0.23920        0.97667
H         -5.05672        0.06593        1.88690
C         -4.55316       -0.69576       -0.05282
C         -3.82862       -0.46988       -1.22584
C         -3.04265        0.66730       -1.35929
H         -2.46335        0.83573       -2.26192
Cl        -3.86444       -1.61419       -2.53466
Cl        -5.52511       -2.12405        0.15029
