20
id_590_cb.log	Energy: -417340.7636376
C         -2.29272        2.66503        0.00000
H         -3.17761        3.29355        0.00000
C         -1.01173        3.25630        0.00000
H         -0.91722        4.33809        0.00000
C          0.12507        2.47608        0.00000
H          1.11652        2.92056        0.00000
C          0.00000        1.07180        0.00000
C         -1.27168        0.46574        0.00000
C         -2.41483        1.29076        0.00000
H         -3.39314        0.81973        0.00000
C         -1.38876       -0.99856        0.00000
O         -2.50810       -1.56799        0.00000
C         -0.14939       -1.72385        0.00000
H         -0.16848       -2.80751        0.00000
C          1.05221       -1.06918        0.00000
N          1.12104        0.27849        0.00000
H          2.05009        0.69670        0.00000
C          2.40557       -1.78464        0.00000
O          3.41368       -1.03375        0.00000
O          2.38443       -3.03667        0.00000
