63
id_533_cb.log	Energy: -1750661.6041151
C          2.56206       -1.33393       -2.71450
H          2.19051       -0.44466       -3.23510
H          2.27231       -2.23526       -3.26457
H          3.64803       -1.28665       -2.63379
O          2.07309       -1.38696       -1.37689
C          0.74142       -1.58550       -1.19643
C          0.32888       -1.80677        0.12537
H          1.07198       -1.79683        0.91820
C         -1.00370       -2.07249        0.40545
H         -1.31419       -2.27849        1.42393
C         -1.93500       -2.10295       -0.63833
C         -1.53485       -1.84872       -1.94724
H         -2.26093       -1.86884       -2.75429
C         -0.19409       -1.59352       -2.23607
H          0.10340       -1.41520       -3.26313
S         -3.65576       -2.47308       -0.31390
O         -4.22293       -2.95583       -1.59408
O         -3.67711       -3.48112        0.77304
N         -4.39647       -1.09247        0.01040
C         -4.01391       -0.41949        1.13626
O         -3.36880       -0.89886        2.09388
N         -4.43519        0.90440        1.18409
C         -4.66711        1.60284       -0.08827
H         -5.31705        1.00282       -0.72262
H         -5.19392        2.53372        0.14842
C         -3.34065        1.90034       -0.78648
H         -2.88974        0.93865       -1.06249
H         -3.52460        2.45906       -1.71149
C         -2.39836        2.70249        0.11932
H         -2.85977        3.69038        0.26650
C         -2.27943        2.04634        1.50671
H         -1.73460        1.09585        1.42972
H         -1.72107        2.69353        2.19227
C         -3.66223        1.75951        2.09478
H         -4.22474        2.69054        2.22219
H         -3.58500        1.27930        3.06945
N         -1.11081        2.96525       -0.55429
C         -0.32135        3.97365        0.16107
H         -0.00517        3.60766        1.15249
H         -0.95040        4.85483        0.32556
C          0.91646        4.37090       -0.63904
H          1.51269        5.09304       -0.07069
H          0.61473        4.85132       -1.57668
C          1.77214        3.16187       -0.98903
H          2.59312        3.45980       -1.64913
C          0.91568        2.07084       -1.62309
H          0.59031        2.41701       -2.61118
H          1.50629        1.15994       -1.77298
C         -0.29342        1.76063       -0.74799
H         -0.89342        0.98220       -1.22546
H          0.06190        1.35242        0.21538
O          2.32458        2.69111        0.26486
C          3.12990        1.58797        0.23407
C          4.09233        1.37034       -0.75555
H          4.21572        2.06711       -1.57762
C          4.90733        0.24705       -0.68217
H          5.65754        0.07042       -1.44668
C          4.77133       -0.66378        0.36227
C          3.80841       -0.43823        1.34692
C          2.98420        0.67999        1.28333
H          2.22496        0.85052        2.04063
Cl         3.59285       -1.55585        2.66233
Cl         5.79267       -2.07110        0.39882
