43
id_585_cb.log	Energy: -473393.7646605
C         -3.58166        3.40524        0.61797
H         -3.64391        4.13408        1.43121
H         -4.60378        3.13692        0.32871
H         -3.11180        3.89851       -0.23984
C         -2.79154        2.16936        1.03735
H         -3.25661        1.70436        1.91439
H         -1.77898        2.46543        1.33634
C         -2.72973        1.14001       -0.08673
H         -2.35092        1.62140       -1.00603
H         -3.75297        0.82166       -0.31206
N         -1.94105       -0.05097        0.25262
C         -2.41327       -1.21920       -0.50028
H         -2.61230       -0.96345       -1.55669
H         -1.62224       -1.97647       -0.51009
C         -3.65947       -1.85418        0.10925
H         -3.41931       -2.19436        1.12325
H         -4.45661       -1.10768        0.20771
C         -4.15712       -3.02465       -0.73321
H         -4.43195       -2.69353       -1.74054
H         -5.03638       -3.49480       -0.28335
H         -3.38154       -3.79177       -0.83521
C         -0.50018        0.20358        0.06536
C          0.00229        0.13712       -1.38182
H         -0.00400       -0.90645       -1.72117
H         -0.65405        0.70249       -2.05232
C          1.42371        0.69034       -1.47019
H          1.40003        1.78524       -1.37905
H          1.85126        0.48087       -2.45651
C          2.33024        0.12671       -0.39871
C          1.83337       -0.53985        0.72747
C          2.71956       -1.03727        1.69223
H          2.31948       -1.54886        2.56371
C          4.09083       -0.87726        1.54421
H          4.77169       -1.26572        2.29549
C          4.60086       -0.20812        0.43303
H          5.67031       -0.06573        0.30211
C          3.71955        0.28996       -0.52090
O          4.16289        0.96878       -1.62903
H          5.13354        1.00758       -1.60943
C          0.34393       -0.73525        0.92580
H          0.09843       -0.58973        1.98329
H          0.08850       -1.77736        0.68873
H         -0.32000        1.22465        0.42632
