40
id_575_cb.log	Energy: -1029080.3137930
C         -0.92501        3.60853       -1.24923
H         -0.62311        3.55594       -2.29867
H         -0.36104        4.41230       -0.76198
H         -1.98870        3.86164       -1.20661
C         -0.67507        2.28164       -0.54814
C         -1.20628        2.33155        0.88492
H         -2.29520        2.47545        0.85287
H         -0.76192        3.18173        1.41410
O         -0.87346        1.17621        1.64539
H         -1.04434        0.38397        1.10353
N          0.75136        1.97250       -0.56331
H          1.38359        2.72407       -0.30138
C          1.24276        0.72585       -0.42589
C          2.62228        0.52749       -0.12831
C          3.08389       -0.79587        0.00229
N          4.37097       -1.07701        0.28993
C          5.21595       -0.03827        0.44685
O          6.44533       -0.20760        0.70215
C          4.69498        1.32599        0.31857
H          5.38990        2.15059        0.46240
N          3.45573        1.59728        0.04427
N          2.22871       -1.85021       -0.16106
C          0.98204       -1.53383       -0.45159
N          0.42650       -0.32624       -0.59755
S         -0.06620       -2.95460       -0.66507
C         -1.62833       -2.20918       -1.21029
H         -1.42415       -1.55436       -2.05817
H         -2.20982       -3.05864       -1.58667
C         -2.42517       -1.48273       -0.15406
C         -2.48904       -1.87556        1.18790
H         -1.89655       -2.72455        1.51552
C         -3.29028       -1.19516        2.10340
H         -3.32088       -1.51968        3.13833
C         -4.05061       -0.09411        1.70700
H         -4.67707        0.45873        2.39951
C         -3.98748        0.29507        0.38200
C         -3.19406       -0.38677       -0.53067
F         -3.19014        0.04396       -1.80869
F         -4.69419        1.35353       -0.06001
H         -1.18375        1.47802       -1.08823
