62
id_518_ca.log	Energy: -1396684.8423448
C          9.27417       -2.02399        0.10460
H         10.08530       -2.74514        0.06241
C          8.95728       -1.39665        1.30829
H          9.51877       -1.62718        2.20903
C          7.91330       -0.47116        1.36025
H          7.66152        0.01546        2.29929
C          7.18175       -0.16825        0.21124
C          7.50651       -0.79581       -0.99704
H          6.94028       -0.57049       -1.89817
C          8.54605       -1.72152       -1.04851
H          8.78896       -2.20714       -1.98918
C          6.05006        0.84471        0.28713
C          6.43063        2.00497       -0.63406
O          7.20176        2.88793       -0.31381
O          5.90801        1.96551       -1.86059
H          5.28170        1.20445       -1.89131
N          4.74687        0.31189       -0.12342
C          3.69708        1.28241        0.24266
H          3.95099        2.26076       -0.17970
H          3.67442        1.39864        1.34136
C          2.32881        0.84099       -0.25669
H          2.33461        0.79761       -1.35537
H          1.59129        1.59547        0.03787
C          1.95668       -0.52874        0.30910
H          1.86352       -0.43415        1.40101
C          3.09654       -1.51311        0.03242
H          3.15462       -1.70837       -1.04744
H          2.90084       -2.47194        0.52699
C          4.44296       -0.98233        0.50956
H          4.43736       -0.86738        1.60905
H          5.22846       -1.69684        0.25484
C          0.65680       -1.08355       -0.26929
H          0.42664       -2.04055        0.23988
H          0.82133       -1.31793       -1.32917
N         -0.50067       -0.18808       -0.19883
C         -1.64496       -0.85548       -0.82513
H         -1.86560       -1.80639       -0.30098
H         -1.37682       -1.10964       -1.85515
C         -2.89174        0.02205       -0.81713
H         -2.70613        0.94525       -1.38004
H         -3.71205       -0.51207       -1.30719
C         -3.24341        0.39293        0.61721
H         -3.53088       -0.49998        1.18883
C         -2.04744        1.04539        1.28813
H         -1.84041        2.00214        0.79242
H         -2.27130        1.24909        2.34041
C         -0.82330        0.13997        1.19175
H          0.02909        0.65036        1.64723
H         -1.00040       -0.78819        1.77077
O         -4.31610        1.34850        0.66898
C         -5.58923        0.95325        0.39567
C         -6.54144        1.97754        0.31627
H         -6.22506        3.00632        0.45530
C         -7.86936        1.67601        0.06432
H         -8.60636        2.47041        0.00167
C         -8.27174        0.35162       -0.11491
C         -7.32167       -0.66234       -0.03470
C         -5.98043       -0.37464        0.21916
H         -5.27335       -1.19367        0.27232
Cl        -7.77400       -2.32876       -0.25216
Cl        -9.94687        0.00769       -0.43544
H          6.01720        1.25159        1.30971
