59
id_524_cb.log	Energy: -1678813.2474358
C         -2.10025       -2.57028       -1.48835
H         -3.14527       -2.55835       -1.78629
C         -1.46700       -3.78334       -1.21157
H         -2.02021       -4.71490       -1.29003
C         -0.12389       -3.80477       -0.83471
H          0.36912       -4.74836       -0.62135
C          0.59430       -2.61048       -0.72917
C         -0.04786       -1.39813       -1.00375
H          0.51832       -0.47783       -0.92114
C         -1.38711       -1.37412       -1.38373
H         -1.87465       -0.42310       -1.59403
C          2.04793       -2.63800       -0.32510
O          2.62860       -3.73695       -0.18793
N          2.57432       -1.41170       -0.15084
S          4.11916       -1.30174        0.31265
O          5.05441       -1.72715       -0.74892
O          4.34526       -1.92043        1.63528
N          4.39782        0.32607        0.53224
C          4.49339        1.17279       -0.67235
H          4.99941        0.60921       -1.45727
H          5.14747        2.00818       -0.39410
C          3.14732        1.71088       -1.15723
H          3.32519        2.37372       -2.01241
H          2.54064        0.86793       -1.50208
C          2.43052        2.47151       -0.03928
H          3.09002        3.29692        0.27075
C          2.27214        1.53577        1.17179
H          1.85322        2.07088        2.03057
H          1.59892        0.70741        0.92811
C          3.63098        0.98333        1.60845
H          3.52431        0.28343        2.43909
H          4.26226        1.80961        1.95841
N          1.19072        3.12289       -0.51604
C          0.19948        2.16879       -1.02789
H          0.64950        1.57816       -1.82868
H         -0.12550        1.46661       -0.24019
C         -1.02777        2.88108       -1.58249
H         -1.72599        2.14082       -1.98672
H         -0.74260        3.54177       -2.40947
C         -1.68073        3.73747       -0.50558
H         -2.55075        4.28010       -0.89129
C         -0.64333        4.70075        0.05739
H         -0.37563        5.41106       -0.73287
H         -1.07293        5.26998        0.88879
C          0.59447        3.94902        0.54238
H          1.35089        4.66341        0.88523
H          0.30570        3.33926        1.41258
O         -2.09574        2.92655        0.62158
C         -2.87990        1.83177        0.40617
C         -3.90481        1.78701       -0.54220
H         -4.10147        2.63616       -1.18848
C         -4.68159        0.63869       -0.65519
H         -5.48323        0.59665       -1.38603
C         -4.45046       -0.46156        0.16737
C         -3.41813       -0.41128        1.10564
C         -2.63250        0.72854        1.22511
H         -1.81679        0.76507        1.94122
Cl        -3.06004       -1.77772        2.11842
Cl        -5.45749       -1.87142        0.00591
