61
id_587_ca.log	Energy: -757369.9686910
C         -8.51576        0.21460       -0.07120
H         -9.09371       -0.69241       -0.24624
H         -8.85508        1.01806       -0.72442
H         -8.58246        0.51640        0.97447
N         -7.08823       -0.06950       -0.37782
C         -6.23047        1.14519       -0.20542
H         -6.62102        1.92083       -0.86557
H         -6.33986        1.45349        0.83704
C         -4.79119        0.81923       -0.54683
H         -4.20964        1.72617       -0.38613
H         -4.71606        0.55302       -1.61375
N         -4.28137       -0.27169        0.29332
C         -5.10231       -1.46527        0.11518
H         -4.76122       -2.25040        0.79259
H         -5.03854       -1.85199       -0.91553
C         -6.55081       -1.18455        0.46358
H         -6.66061       -0.86455        1.50243
H         -7.16962       -2.06381        0.27962
C         -2.88341       -0.47323        0.18853
C         -2.01178        0.61426        0.37015
H         -2.41063        1.59632        0.60145
C         -0.63794        0.44925        0.29419
H         -0.00208        1.31437        0.46215
C         -0.06891       -0.80883        0.05117
C         -0.93593       -1.89136       -0.10774
H         -0.52256       -2.87610       -0.29889
C         -2.31704       -1.73310       -0.05322
H         -2.94187       -2.60300       -0.21541
C          1.40299       -1.00139       -0.03138
C          2.21726        0.07915       -0.43361
H          1.75344        1.02375       -0.68855
C          3.59456       -0.07188       -0.51384
C          4.13588       -1.37023       -0.19342
C          5.51650       -1.67790       -0.27105
H          6.22976       -0.92863       -0.60072
C          5.97881       -2.93289        0.04871
H          7.03924       -3.15322       -0.01719
C          5.07387       -3.93736        0.45782
H          5.44455       -4.92570        0.71155
C          3.72970       -3.66800        0.52761
H          3.01710       -4.42836        0.83209
C          3.22081       -2.38377        0.19885
N          1.87063       -2.19925        0.28276
N          4.41747        0.93264       -0.93096
H          5.39823        0.83926       -0.70220
C          3.94825        2.29961       -1.08859
H          3.05629        2.29090       -1.72063
H          4.71618        2.84888       -1.63699
C          3.67920        2.99373        0.24785
H          3.12497        2.31372        0.92077
H          4.64351        3.19721        0.72459
N          2.96462        4.25964        0.08321
C          1.54717        3.99646       -0.15397
H          1.01424        4.94141       -0.29149
H          1.08456        3.46096        0.69439
H          1.40489        3.39777       -1.05728
C          3.08318        5.03569        1.31424
H          2.53190        5.97474        1.21401
H          4.13270        5.27020        1.51042
H          2.68005        4.49371        2.18743
H         -7.02441       -0.36012       -1.36321
