46
id_597_ca.log	Energy: -766703.1548746
C         -5.28687        2.44933       -0.07370
H         -5.78150        3.40940        0.03071
C         -3.94389        2.41113       -0.40310
H         -3.37948        3.32463       -0.55786
C         -3.28759        1.17781       -0.52600
C         -4.01097       -0.02208       -0.33449
C         -5.36933        0.07712        0.00027
C         -6.02238        1.27791        0.14230
H         -7.07131        1.29072        0.41164
F         -6.06652       -1.05589        0.19655
C         -3.31350       -1.27678       -0.58664
N         -1.99611       -1.22541       -0.74732
C         -1.20042       -0.03696       -0.39597
N         -1.96090        1.10276       -0.88957
H         -1.45430        1.98045       -0.80232
C         -0.97896        0.03007        1.12463
H         -1.94011       -0.03576        1.64497
H         -0.52940        1.00289        1.35547
C         -0.04289       -1.07960        1.59651
H         -0.47139       -2.06557        1.38800
H          0.13769       -1.00586        2.66733
N          1.23840       -0.99642        0.89108
C          1.08094       -1.16855       -0.55648
H          2.04324       -1.09610       -1.05859
H          0.69905       -2.17943       -0.73415
C          0.14212       -0.09916       -1.12305
H          0.62050        0.88057       -1.00323
H         -0.02636       -0.27018       -2.19004
C          2.19350       -0.18960        1.43053
O          2.04411        0.38128        2.51378
C          3.50386       -0.04451        0.70871
C          4.18852       -1.14552        0.18661
H          3.75265       -2.13817        0.24168
C          5.43851       -0.97520       -0.39292
H          5.98362       -1.82263       -0.79379
C          5.99467        0.30714       -0.45476
C          5.31905        1.41358        0.07147
H          5.76818        2.39921        0.01897
C          4.07831        1.22779        0.66484
H          3.54688        2.07043        1.09462
C          7.28407        0.48921       -1.06346
N          8.32362        0.63641       -1.55511
N         -3.94387       -2.42869       -0.71828
H         -3.42343       -3.28085       -0.90177
H         -4.95330       -2.47921       -0.69337
H         -1.50374       -2.09119       -0.95482
