68
id_513_ca.log	Energy: -1446009.6643857
C          8.63765        0.53248        0.00850
H          8.15229        1.25755        0.67034
H          8.98240        1.08249       -0.87481
H          9.51660        0.13938        0.52592
C          7.70916       -0.59070       -0.38020
C          8.06593       -1.91573       -0.10959
H          9.00752       -2.11184        0.39825
C          7.24638       -2.98366       -0.47825
H          7.54958       -4.00218       -0.25290
C          6.04668       -2.73643       -1.14043
H          5.40191       -3.55692       -1.44161
C          5.68102       -1.41956       -1.42221
H          4.74968       -1.21873       -1.95070
C          6.49147       -0.34120       -1.04555
C          6.02181        1.06721       -1.33152
H          5.36343        1.07214       -2.20427
H          6.86658        1.72120       -1.57054
C          5.30732        1.71459       -0.14023
C          4.80153        3.15297       -0.43682
O          4.63315        3.89490        0.56486
O          4.59834        3.45758       -1.63714
N          4.14909        0.85629        0.32005
H          4.50921       -0.11150        0.32182
C          2.96383        0.87379       -0.60485
H          3.32941        0.71033       -1.61939
H          2.53050        1.87630       -0.53786
C          1.96134       -0.19052       -0.18909
H          1.11799       -0.13546       -0.88411
H          2.41535       -1.18623       -0.30153
C          1.49730        0.00685        1.25426
H          0.98626        0.97728        1.32314
C          2.71990        0.06734        2.17522
H          3.22321       -0.90981        2.18837
H          2.41957        0.29363        3.20389
C          3.70906        1.13361        1.73276
H          4.60822        1.13798        2.35144
H          3.26378        2.13048        1.73535
C          0.56251       -1.10314        1.73024
H          0.22150       -0.85406        2.75417
H          1.13707       -2.03575        1.80201
N         -0.58991       -1.36580        0.86537
C         -1.43369       -0.17391        0.74519
H         -0.85211        0.63377        0.29385
H         -1.75302        0.17038        1.74898
C         -2.66204       -0.43618       -0.12132
H         -3.25845        0.47964       -0.18286
H         -2.34913       -0.70228       -1.13891
C         -3.47114       -1.59282        0.44862
H         -3.88637       -1.33101        1.43094
C         -2.58352       -2.81547        0.59942
H         -2.26466       -3.15245       -0.39459
H         -3.14086       -3.62953        1.07439
C         -1.36691       -2.46405        1.44798
H         -1.70061       -2.19378        2.46893
H         -0.71530       -3.33808        1.54157
O         -4.54782       -1.96324       -0.42830
C         -5.64719       -1.16582       -0.51828
C         -6.58035       -1.52239       -1.50028
H         -6.37999       -2.38074       -2.13348
C         -7.74368       -0.78712       -1.65592
H         -8.46631       -1.06425       -2.41695
C         -7.99678        0.31591       -0.83901
C         -7.06638        0.66569        0.13522
C         -5.89029       -0.06502        0.30456
H         -5.19356        0.24318        1.07474
Cl        -7.33662        2.03283        1.17763
Cl        -9.46568        1.22149       -1.06169
H          5.97825        1.75775        0.72150
