63
id_573_cb.log	Energy: -846420.3914900
C         -2.88196        4.17259       -0.90456
H         -2.82129        3.71223       -1.89555
H         -2.04694        4.87332       -0.80293
H         -3.81648        4.73805       -0.84586
C         -2.83208        3.13476        0.22812
H         -3.69059        2.46681        0.13123
C         -2.93047        3.82160        1.58764
H         -2.85969        3.09810        2.40493
H         -3.89510        4.33221        1.66099
H         -2.13774        4.56231        1.71432
C         -1.55066        2.33516        0.09415
N         -0.50437        2.75298        0.73215
C          0.69262        2.08907        0.54954
C          1.83692        2.52273        1.24487
H          1.75120        3.37665        1.90895
C          3.04243        1.87743        1.06843
H          3.91956        2.24059        1.59596
C          3.16884        0.76997        0.19737
C          2.04033        0.33980       -0.48661
H          2.08306       -0.51999       -1.14826
C          0.81317        0.99396       -0.31588
C         -0.37335        0.52288       -1.02215
O         -0.37083       -0.44065       -1.78914
N         -1.53817        1.24469       -0.76820
C         -2.77578        0.74208       -1.39532
H         -3.38026        1.59295       -1.70986
H         -2.47336        0.20695       -2.29600
C         -3.58099       -0.18002       -0.47915
C         -4.92575       -0.49879       -1.13616
H         -5.49950        0.42233       -1.29115
H         -4.73477       -0.93442       -2.12775
C         -5.71352       -1.49713       -0.28955
H         -6.62538       -1.80573       -0.81136
H         -6.01610       -1.02333        0.65200
C         -4.86407       -2.72498        0.02170
H         -4.65309       -3.25758       -0.92417
H         -5.41844       -3.41439        0.66718
N         -3.63048       -2.33797        0.70820
C         -2.83554       -1.47996       -0.16976
H         -1.88267       -1.25871        0.32131
H         -2.60427       -1.98078       -1.12821
C         -2.87892       -3.51280        1.19445
H         -3.62471       -4.13735        1.70159
C         -2.22745       -4.35997        0.09556
H         -2.94137       -4.63998       -0.68558
H         -1.82706       -5.28210        0.52858
H         -1.39480       -3.82556       -0.37513
C         -1.83630       -3.11086        2.23473
H         -1.01605       -2.53906        1.78790
H         -1.40058       -4.00731        2.68707
H         -2.28503       -2.50829        3.02977
C          4.47570        0.08907        0.02528
C          5.37114       -0.02307        1.09754
H          5.10248        0.37567        2.07115
C          6.59677       -0.66267        0.94609
H          7.29367       -0.76176        1.77122
C          6.91685       -1.19102       -0.29440
C          6.06119       -1.10237       -1.38111
H          6.35660       -1.52230       -2.33643
C          4.84066       -0.45779       -1.21251
H          4.17175       -0.36336       -2.06262
F          8.10128       -1.81133       -0.44990
H         -3.76561        0.33528        0.47378
