67
id_507_ca.log	Energy: -1479473.7134949
C          7.96284       -0.97764       -1.14563
H          7.39309       -1.73400       -1.67814
C          9.28065       -1.22964       -0.79169
H          9.75247       -2.17420       -1.04042
C         10.00446       -0.24568       -0.10747
C          9.41576        0.98007        0.21883
H          9.99001        1.73363        0.74694
C          8.09592        1.21706       -0.14471
H          7.63109        2.16749        0.10150
C          7.36128        0.24491       -0.82984
C          5.91493        0.49296       -1.18777
H          5.67113        0.01222       -2.14112
H          5.73492        1.56691       -1.27699
C          5.01051       -0.10114       -0.10494
C          5.15450        0.68164        1.19957
O          5.07919        1.88786        1.26432
O          5.39544       -0.11535        2.23469
H          5.49805        0.43345        3.03869
N          3.56516       -0.12598       -0.53006
C          2.69808       -0.82986        0.48488
H          3.19370       -1.77171        0.72661
H          2.68107       -0.19007        1.37231
C          1.29907       -1.04115       -0.06888
H          1.34361       -1.72143       -0.93002
H          0.71103       -1.53607        0.70919
C          0.65706        0.28144       -0.48691
H          0.57403        0.92061        0.40241
C          1.57924        0.99505       -1.47800
H          1.17761        1.97755       -1.74525
H          1.65641        0.40869       -2.40349
C          2.97037        1.20807       -0.90509
H          2.94770        1.80991        0.00510
H          3.63291        1.67139       -1.63544
C         -0.71940        0.09713       -1.12025
H         -0.59220       -0.40387       -2.08866
H         -1.13864        1.10005       -1.33113
N         -1.66501       -0.69848       -0.33771
C         -1.91761       -0.07207        0.96317
H         -2.27471        0.96659        0.83072
H         -0.98113       -0.02361        1.52515
C         -2.93147       -0.87004        1.77718
H         -2.52555       -1.86409        1.99300
H         -3.11872       -0.36901        2.73176
C         -4.24265       -1.05232        1.02721
H         -4.91364       -1.70128        1.60038
C         -3.96966       -1.61478       -0.36513
H         -3.61569       -2.64511       -0.25032
H         -4.88577       -1.64536       -0.96336
C         -2.92043       -0.78195       -1.09111
H         -2.70755       -1.22866       -2.06740
H         -3.32373        0.23077       -1.28030
O         -4.82841        0.26042        0.93954
C         -6.12805        0.39671        0.57681
C         -6.57948        1.71323        0.42076
H         -5.88203        2.52915        0.57593
C         -7.89613        1.96346        0.07872
H         -8.24501        2.98372       -0.03964
C         -8.78725        0.90844       -0.11831
C         -8.33407       -0.39822        0.03373
C         -7.01068       -0.66600        0.38007
H         -6.69976       -1.69761        0.48834
Cl        -9.40537       -1.74830       -0.20823
Cl       -10.43661        1.25718       -0.54837
C         11.37002       -0.49765        0.26083
N         12.47211       -0.70200        0.55829
H          5.27406       -1.14563        0.07343
H          3.55247       -0.70172       -1.38595
