59
id_516_ca.log	Energy: -1372035.2173725
C          5.77957        4.05609       -0.57104
H          5.93617        5.11802       -0.73768
C          5.11852        3.61565        0.57812
H          4.76082        4.33548        1.30907
C          4.91749        2.25353        0.79432
H          4.40645        1.92039        1.69363
C          5.36849        1.31248       -0.13946
C          6.02977        1.76091       -1.28543
H          6.38090        1.03583       -2.01620
C          6.23691        3.12467       -1.50201
H          6.75166        3.45647       -2.39939
C          5.17677       -0.17655        0.09106
C          6.07951       -0.56672        1.28974
O          5.61193       -0.49182        2.45487
O          7.26553       -0.88442        0.99420
N          3.77034       -0.54661        0.28595
C          3.68127       -2.00502        0.43569
H          4.28646       -2.31205        1.29167
H          4.09310       -2.50409       -0.46203
C          2.24174       -2.46158        0.65117
H          1.86089       -2.02596        1.58116
H          2.21852       -3.55296        0.74670
C          1.40463       -2.01615       -0.53964
H          1.78348       -2.51600       -1.43840
C          1.50701       -0.50904       -0.72244
H          1.09994        0.00963        0.15237
H          0.95817       -0.17420       -1.60830
C          2.97923       -0.13432       -0.88085
H          3.05567        0.94870       -0.99931
H          3.38252       -0.59835       -1.80152
N         -0.02181       -2.51117       -0.41671
H          0.05164       -3.49469       -0.11715
C         -0.74356       -2.51515       -1.73558
H         -0.86488       -1.47238       -2.03615
H         -0.10033       -3.02454       -2.45479
C         -2.08238       -3.22409       -1.59711
H         -1.91744       -4.27785       -1.34519
H         -2.59841       -3.18760       -2.56057
C         -2.95249       -2.60332       -0.51292
H         -3.86330       -3.19763       -0.39580
C         -2.17902       -2.51875        0.80191
H         -2.01055       -3.53657        1.17286
H         -2.74994       -1.98280        1.56590
C         -0.84911       -1.80244        0.61909
H         -0.28209       -1.78212        1.54986
H         -0.99564       -0.78071        0.26270
O         -3.29687       -1.29103       -0.98540
C         -4.29244       -0.59297       -0.37221
C         -5.14559       -1.10660        0.60813
H         -5.05514       -2.12285        0.97317
C         -6.14570       -0.29379        1.13591
H         -6.81068       -0.68924        1.89718
C         -6.30701        1.01741        0.70388
C         -5.44765        1.52203       -0.27601
C         -4.44494        0.72616       -0.80998
H         -3.77726        1.11680       -1.57120
Cl        -5.60772        3.15541       -0.85155
Cl        -7.57171        1.99544        1.39022
H          5.57913       -0.70527       -0.79015
