46
id_552_cb.log	Energy: -1628861.6836524
C          6.68743       -1.66098        0.50348
H          7.13543       -2.62570        0.71586
C          5.34802       -1.60112        0.14003
H          4.76149       -2.50551        0.05932
C          4.74002       -0.36915       -0.13685
C          5.52638        0.79042       -0.06256
C          6.86876        0.69886        0.28691
C          7.46843       -0.51118        0.58151
H          8.51694       -0.53422        0.85490
F          7.58803        1.82626        0.34652
Cl         4.85907        2.36080       -0.39324
N          3.40235       -0.26205       -0.52654
H          3.13555        0.59075       -1.00639
C          2.37750       -1.06373       -0.04955
O          2.56497       -1.99138        0.73591
N          1.16112       -0.71779       -0.55008
H          1.06773        0.09630       -1.15534
C         -0.08702       -1.25443       -0.20687
C         -0.30996       -2.36061        0.57263
H          0.52024       -2.91521        0.98712
C         -1.62537       -2.77282        0.86229
H         -1.79286       -3.62634        1.50776
C         -2.69568       -2.08931        0.34008
C         -2.50560       -0.97029       -0.51623
C         -1.17935       -0.48368       -0.78579
O         -0.89473        0.54476       -1.47281
S         -3.83891       -0.07971       -1.26002
O         -5.04645       -0.90126       -1.27973
O         -3.41862        0.49883       -2.53352
N         -4.21131        1.22864       -0.26171
C         -4.69544        0.82233        1.06783
H         -5.48689        0.08112        0.95486
H         -3.87990        0.38872        1.66757
C         -5.27303        2.02874        1.78009
H         -5.58541        1.76936        2.79097
H         -6.10935        2.45803        1.22709
N         -4.22871        3.09642        1.88171
H         -4.62632        3.92643        2.33653
H         -3.45917        2.76457        2.47846
C         -3.68720        3.46617        0.53539
H         -4.51351        3.90033       -0.02876
H         -2.90361        4.20833        0.68356
C         -3.13586        2.22720       -0.14030
H         -2.29382        1.82951        0.44478
H         -2.77788        2.49885       -1.13268
Cl        -4.27178       -2.68252        0.84154
