25
id_578_cb.log	Energy: -372370.6882015
C         -1.24668        1.33651       -0.04271
H         -1.40125        2.41573       -0.08275
C          0.06316        0.82459       -0.00329
C          0.22485       -0.56332        0.04785
C         -0.90653       -1.39506        0.05466
H         -0.76863       -2.47593        0.09197
C         -2.23180       -0.91426        0.01663
C         -2.35320        0.50707       -0.03175
O         -3.64841        1.00643       -0.06564
H         -3.61148        1.97652       -0.09949
O         -3.29084       -1.69306        0.02455
C          1.60503       -1.18753        0.13126
H          1.63360       -2.11020       -0.46270
H          1.81658       -1.47857        1.17104
C          2.70773       -0.23980       -0.32349
C          2.54607        1.10105        0.38010
H          2.54179        0.92785        1.46572
H          3.40037        1.75130        0.15397
C          1.24497        1.77276       -0.05578
H          1.36778        2.14926       -1.08194
H          1.04497        2.65166        0.56851
N          4.01913       -0.82317       -0.01644
H          4.74301       -0.22198       -0.40989
H          4.10431       -1.71504       -0.50478
H          2.58750       -0.06752       -1.40676
