26
id_578_ca.log	Energy: -372666.4346887
C         -1.18875        1.37611       -0.04398
H         -1.32753        2.45553       -0.08336
C          0.10457        0.83563       -0.00695
C          0.26170       -0.55562        0.04520
C         -0.87650       -1.37469        0.05415
H         -0.77202       -2.45703        0.09130
C         -2.15052       -0.83188        0.01701
C         -2.30779        0.55874       -0.03164
O         -3.60469        1.01905       -0.06285
H         -3.61492        1.99039       -0.10361
O         -3.24714       -1.66330        0.02807
H         -4.05705       -1.12424       -0.00327
C          1.63354       -1.19351        0.12547
H          1.64975       -2.11348       -0.47202
H          1.83763       -1.48942        1.16483
C          2.74538       -0.25413       -0.32436
C          2.59179        1.08580        0.38240
H          2.58386        0.91191        1.46754
H          3.44936        1.73164        0.15827
C          1.29813        1.76849       -0.05606
H          1.41734        2.13656       -1.08462
H          1.09983        2.64929        0.56447
N          4.04841       -0.85063       -0.01154
H          4.78005       -0.25308       -0.39598
H          4.12975       -1.74027       -0.50455
H          2.63026       -0.07899       -1.40742
