30
id_57_cb.log	Energy: -408613.5034982
C         -2.59866       -2.37359       -0.17864
H         -3.18591       -3.26168       -0.39021
C         -1.33516       -2.50019        0.44641
H         -0.96407       -3.48562        0.71041
C         -0.57812       -1.38766        0.72241
H          0.38931       -1.50276        1.20052
C         -1.04409       -0.08661        0.38554
C         -2.31723        0.03750       -0.24360
C         -3.07663       -1.13187       -0.51370
H         -4.04553       -1.01983       -0.99329
C         -2.80503        1.32676       -0.59182
H         -3.77774        1.40420       -1.07010
C         -2.05790        2.44371       -0.32840
H         -2.42793        3.42880       -0.59460
C         -0.79060        2.32146        0.29372
H         -0.20872        3.21713        0.49464
C         -0.28101        1.09619        0.65373
C          1.08193        1.00305        1.30286
H          1.03828        0.45764        2.24985
H          1.43356        2.01689        1.52408
C          2.11517        0.34070        0.43332
N          3.01259       -0.46764        0.86745
C          3.85222       -0.79023       -0.30223
H          4.78569       -0.21853       -0.23870
H          4.11347       -1.84958       -0.32073
C          3.02865       -0.35787       -1.52114
H          2.41891       -1.18463       -1.90534
H          3.63755        0.04110       -2.33328
N          2.17973        0.67530       -0.91361
H          1.28579        0.85521       -1.36095
