65
id_547_cb.log	Energy: -1728141.0939092
C         -1.94249       -1.86927       -1.74352
H         -2.51588       -2.67002       -1.26381
H         -2.07315       -1.94336       -2.82689
H         -2.37368       -0.91730       -1.41637
C         -0.48848       -1.94661       -1.36519
C          0.51433       -1.74688       -2.32090
H          0.23770       -1.52877       -3.34958
C          1.86113       -1.84123       -1.97876
H          2.63064       -1.69695       -2.73157
C          2.21075       -2.14951       -0.66462
C          1.23236       -2.33074        0.31273
H          1.51419       -2.57345        1.33209
C         -0.11038       -2.22275       -0.04491
H         -0.87874       -2.37975        0.70996
S          3.94862       -2.26995       -0.25276
O          4.63811       -2.73225       -1.47933
O          4.06076       -3.20822        0.88955
N          4.46200       -0.77959        0.01882
C          3.90503       -0.11360        1.07520
O          3.27992       -0.63844        2.02259
N          4.11673        1.25820        1.06236
C          3.21812        2.03213        1.92652
H          3.65777        3.02896        2.04220
H          3.17398        1.57022        2.91188
C          1.82643        2.14244        1.30004
H          1.39474        1.13517        1.21655
H          1.18379        2.72535        1.96837
C          1.92014        2.79980       -0.08968
H          2.32401        3.81250        0.06253
C          2.93285        2.04121       -0.95370
H          2.57967        1.02204       -1.16126
H          3.06504        2.55280       -1.91446
C          4.27967        1.92613       -0.23669
H          4.69222        2.92163       -0.03867
H          4.99993        1.37797       -0.84063
N          0.63302        2.99932       -0.78685
C         -0.24530        3.87842       -0.00420
H         -0.52141        3.41984        0.95845
H          0.30625        4.79758        0.22145
C         -1.52571        4.21732       -0.75963
H         -1.29316        4.77254       -1.67527
H         -2.16651        4.85014       -0.13614
C         -2.27147        2.95070       -1.15125
H         -3.16042        3.19436       -1.74223
C         -1.33439        2.01947       -1.91187
H         -1.83068        1.07226       -2.15128
H         -1.08670        2.50417       -2.86379
C         -0.05974        1.74568       -1.11781
H         -0.31641        1.16633       -0.21295
H          0.60082        1.12130       -1.72435
O         -2.68481        2.34964        0.10134
C         -3.35628        1.16830        0.07051
C         -4.36375        0.89334       -0.85311
H         -4.61455        1.62173       -1.61689
C         -5.04889       -0.31411       -0.79410
H         -5.83339       -0.53305       -1.51108
C         -4.72298       -1.23863        0.18876
C         -3.71753       -1.01733        1.13912
C         -3.04723        0.21040        1.05072
Cl        -1.77956        0.60457        2.18584
C         -3.38921       -2.06862        2.16192
H         -3.15134       -3.01612        1.66693
H         -4.25111       -2.24864        2.81368
H         -2.54187       -1.78291        2.78329
Cl        -5.59842       -2.75546        0.21339
