40
id_554_cb.log	Energy: -862791.8345643
C          5.10673       -0.16553        2.03674
H          5.82167        0.65507        1.91415
H          5.60180       -1.11098        1.81195
H          4.78729       -0.16681        3.08474
C          3.93315        0.04297        1.14434
N          3.52558       -0.74916        0.22803
C          2.35941       -0.08671       -0.39281
N          2.10551        1.15770        0.31993
C          3.04104        1.23858        1.20133
N          3.26951        2.27320        2.04897
H          2.51351        2.93584        2.17472
H          3.80430        2.07534        2.88605
C          1.15471       -1.02033       -0.35209
C          1.31272       -2.37592       -0.65913
H          2.30126       -2.76567       -0.87936
C          0.21096       -3.22529       -0.67739
H          0.34287       -4.27555       -0.91807
C         -1.06131       -2.73480       -0.39754
H         -1.91991       -3.39880       -0.43625
C         -1.23666       -1.38046       -0.09653
C         -0.12162       -0.53259       -0.07881
H         -0.24543        0.51479        0.17383
C         -2.58583       -0.84439        0.20190
C         -2.96890        0.43669       -0.20291
H         -2.29292        1.07429       -0.76458
C         -4.24808        0.86679        0.11199
C         -5.11727        0.03431        0.80807
H         -6.12279        0.36593        1.04990
N         -4.75804       -1.18817        1.20371
C         -3.52544       -1.60501        0.90702
H         -3.25793       -2.59606        1.26364
Cl        -4.78762        2.45091       -0.37427
C          2.71840        0.17568       -1.85559
H          2.93225       -0.73825       -2.40289
C          3.49371        1.39540       -2.24674
H          3.75358        2.10018       -1.46322
H          4.23223        1.28939       -3.03407
C          2.03791        1.27140       -2.61497
H          1.78509        1.08561       -3.65332
H          1.33308        1.89051       -2.07037
