67
id_512_cb.log	Energy: -1445719.0292210
C         -0.52352       -0.23991       -1.90246
H         -1.07404        0.54061       -2.43773
H         -0.08191        0.22034       -1.01082
H          0.30394       -0.57680       -2.53781
C         -1.44642       -1.36818       -1.51420
C         -2.83007       -1.16265       -1.56774
H         -3.20085       -0.20305       -1.92278
C         -3.73392       -2.15104       -1.18158
H         -4.80256       -1.95876       -1.22826
C         -3.25396       -3.38081       -0.73603
H         -3.94164       -4.16441       -0.43040
C         -1.87782       -3.60559       -0.69673
H         -1.50003       -4.57129       -0.36735
C         -0.96061       -2.62093       -1.08407
C          0.51961       -2.93823       -1.04703
H          0.65306       -4.02575       -1.01410
H          0.98499       -2.57745       -1.97069
C          1.25100       -2.31664        0.15535
C          0.47431       -2.65313        1.44621
O          0.41698       -3.85882        1.81257
O         -0.08561       -1.69038        2.04351
N          2.64059       -2.79443        0.27122
C          3.33321       -2.09763        1.37100
H          4.30572       -2.58878        1.50389
H          2.76882       -2.24942        2.29798
C          3.55620       -0.60060        1.12024
H          4.12086       -0.17532        1.96030
H          2.58837       -0.08774        1.09991
C          4.31265       -0.37676       -0.19609
H          5.29531       -0.86469       -0.07310
C          3.62946       -1.14195       -1.34375
H          4.25081       -1.08562       -2.24716
H          2.65640       -0.70908       -1.59919
C          3.43322       -2.60858       -0.95573
H          4.41376       -3.06477       -0.76621
H          2.97835       -3.17324       -1.77333
C          4.67264        1.09128       -0.51723
H          5.47340        1.40002        0.16554
H          5.10463        1.09266       -1.52835
N          3.66797        2.16214       -0.47456
C          3.36828        2.65773        0.87262
H          2.85617        1.90595        1.49097
H          4.31382        2.89669        1.37023
C          2.49696        3.90988        0.80657
H          3.04018        4.71719        0.30215
H          2.25555        4.24964        1.81950
C          1.20982        3.66058        0.02989
H          0.64562        4.59437       -0.06794
C          1.53244        3.05549       -1.33409
H          2.03088        3.82632       -1.93401
H          0.61901        2.76646       -1.86580
C          2.43658        1.83667       -1.19067
H          1.87595        1.03974       -0.67395
H          2.69911        1.45839       -2.18473
O          0.43663        2.73863        0.82828
C         -0.86054        2.49256        0.50447
C         -1.59193        3.19334       -0.45882
H         -1.15185        3.99838       -1.03485
C         -2.92045        2.84700       -0.69481
H         -3.48944        3.38367       -1.44773
C         -3.53203        1.82409        0.01974
C         -2.79691        1.13410        0.98838
C         -1.47026        1.46144        1.22855
H         -0.89646        0.92124        1.97497
Cl        -3.52433       -0.13971        1.92018
Cl        -5.19173        1.42150       -0.31423
H          1.20541       -1.22452        0.04625
