63
id_540_cb.log	Energy: -1703768.9674420
C          1.65658       -1.58979       -2.05466
H          0.80456       -1.00858       -2.41927
H          1.69320       -2.52718       -2.62030
H          2.57573       -1.04018       -2.27117
C          1.48531       -1.86511       -0.58116
C          0.19711       -1.82302       -0.03260
H         -0.63746       -1.58112       -0.68827
C         -0.03707       -2.06518        1.31935
H         -1.05123       -2.01857        1.70699
C          1.02723       -2.35720        2.17030
H          0.85778       -2.54015        3.22684
C          2.32007       -2.41384        1.65432
H          3.16173       -2.64279        2.29960
C          2.53878       -2.17853        0.29685
S          4.23563       -2.25577       -0.29594
O          5.03635       -2.90192        0.76966
O          4.22130       -3.01522       -1.56641
N          4.66605       -0.75716       -0.65939
C          4.70240        0.14995        0.35982
O          4.68072       -0.10969        1.58149
N          4.80736        1.47332       -0.06707
C          4.49682        2.48850        0.94464
H          5.02476        2.26077        1.86928
H          4.86856        3.44703        0.56930
C          2.98835        2.56744        1.19742
H          2.76857        3.37772        1.90193
H          2.66256        1.62379        1.64931
C          2.25258        2.81198       -0.11992
H          2.47151        3.82842       -0.46517
C          2.65749        1.81307       -1.20054
H          2.18151        2.04754       -2.15862
H          2.36364        0.79861       -0.90752
C          4.18120        1.82015       -1.34902
H          4.53851        2.81456       -1.63531
H          4.49085        1.11379       -2.11607
N          0.75243        2.80723        0.12820
H          0.61090        3.30543        1.01900
C         -0.01242        3.57015       -0.91728
H          0.44194        4.55911       -0.99173
H          0.12423        3.03698       -1.86140
C         -1.48264        3.66871       -0.53670
H         -2.00895        4.19748       -1.33644
H         -1.59058        4.25147        0.38653
C         -2.08438        2.28710       -0.32839
H         -2.07016        1.74133       -1.28085
C         -1.28778        1.53337        0.73166
H         -1.36722        2.06603        1.68765
H         -1.66382        0.51659        0.88139
C          0.16468        1.43271        0.29869
H          0.76585        0.89054        1.03026
H          0.24392        0.93679       -0.67212
O         -3.43794        2.49087        0.08493
C         -4.30028        1.43385        0.09904
C         -5.54990        1.67893        0.67998
H         -5.76025        2.66147        1.09003
C         -6.50228        0.67463        0.72913
H         -7.47067        0.86356        1.18132
C         -6.22547       -0.58839        0.20377
C         -4.98240       -0.82464       -0.37588
C         -4.01368        0.17769       -0.43568
H         -3.06034       -0.05093       -0.89765
Cl        -4.58859       -2.38202       -1.04420
Cl        -7.43882       -1.83142        0.29533
