60
id_530_cb.log	Energy: -1741322.6087249
C         -6.50338        3.31353       -0.12019
H         -6.11172        4.32192       -0.18736
C         -5.86242        2.23934       -0.72432
H         -4.94602        2.38929       -1.28507
C         -6.42255        0.96933       -0.60283
C         -7.60440        0.73768        0.10075
H         -8.02009       -0.26215        0.17171
C         -8.24495        1.81063        0.70386
H         -9.16728        1.68528        1.25921
C         -7.67773        3.07260        0.57894
F         -8.29645        4.10691        1.15932
S         -5.61339       -0.40069       -1.36659
O         -6.60114       -1.40001       -1.75791
O         -4.68800        0.10051       -2.37995
N         -4.77311       -1.00188       -0.03270
H         -4.45512       -0.26390        0.59494
C         -3.93581       -2.11674       -0.25448
O         -3.97125       -2.69298       -1.33974
N         -3.19843       -2.52815        0.80710
C         -2.06649       -3.41721        0.50786
H         -1.90104       -4.03858        1.39351
H         -2.33897       -4.06783       -0.32099
C         -0.82438       -2.58459        0.19263
H         -1.02438       -2.00306       -0.71647
H          0.01548       -3.25569       -0.01650
C         -0.49418       -1.64470        1.36610
H         -0.30965       -2.27992        2.24429
C         -1.71439       -0.77953        1.70406
H         -1.50730       -0.17210        2.59036
H         -1.95336       -0.09990        0.87542
C         -2.92599       -1.67334        1.96945
H         -3.81534       -1.10404        2.24256
H         -2.71906       -2.34570        2.80797
N          0.72192       -0.83328        1.20568
C          1.93287       -1.65141        1.30068
H          1.87743       -2.25212        2.21344
H          2.02135       -2.35255        0.45124
C          3.17865       -0.76990        1.34002
H          4.07111       -1.39697        1.42937
H          3.13942       -0.10910        2.21362
C          3.23324        0.09596        0.08763
H          3.36058       -0.52957       -0.80603
C          1.94553        0.89089       -0.05179
H          1.87069        1.59679        0.78324
H          1.95852        1.46225       -0.98506
C          0.75167       -0.06042       -0.03906
H          0.81924       -0.71909       -0.92275
H         -0.17320        0.51460       -0.13172
O          4.30470        1.04797        0.15171
C          5.57919        0.63234       -0.06827
C          5.95146       -0.66343       -0.43610
H          5.22023       -1.45292       -0.55653
C          7.29430       -0.95370       -0.65387
H          7.58689       -1.95839       -0.93949
C          8.27189        0.02261       -0.51028
C          7.89189        1.31490       -0.13945
C          6.55832        1.61960        0.08130
H          6.26214        2.62285        0.36690
Cl         9.07551        2.57492        0.05448
Cl         9.93864       -0.38714       -0.79492
