68
id_541_ca.log	Energy: -1763127.7714518
C          0.04567       -0.89569        1.61888
H          0.89070       -1.52687        1.92947
H          0.42596        0.11692        1.45742
H         -0.69782       -0.87092        2.42173
N         -0.58199       -1.35272        0.37490
C          0.40722       -1.37130       -0.71492
H          1.25898       -2.02572       -0.46718
H          0.77713       -0.35254       -0.87558
H         -0.05728       -1.72800       -1.63569
C         -1.22963       -2.62372        0.50115
C         -0.67339       -3.68894        1.21315
H          0.29196       -3.56260        1.69419
C         -1.33627       -4.91195        1.30497
H         -0.87896       -5.72501        1.86072
C         -2.57237       -5.09853        0.68940
H         -3.08823       -6.05007        0.76364
C         -3.15450       -4.05047       -0.01747
H         -4.12360       -4.16967       -0.49026
C         -2.48052       -2.83362       -0.10239
S         -3.28024       -1.54536       -1.03622
O         -4.63183       -1.98853       -1.37347
O         -2.42685       -1.10257       -2.14076
N         -3.40781       -0.34330        0.14341
H         -2.51482       -0.29121        0.64697
C         -3.96370        0.88908       -0.27416
O         -4.54455        0.96956       -1.35779
N         -3.86555        1.91336        0.61185
C         -2.95414        1.85820        1.76324
H         -3.30699        2.61025        2.47533
H         -3.03238        0.89013        2.26272
C         -1.52985        2.16389        1.31198
H         -0.85928        2.13406        2.17761
H         -1.21165        1.37060        0.62452
C         -1.44431        3.52216        0.59301
H         -1.66450        4.30379        1.33358
C         -2.51374        3.62748       -0.50255
H         -2.28218        2.95016       -1.33457
H         -2.53208        4.64782       -0.90018
C         -3.90114        3.26714        0.03160
H         -4.65445        3.30397       -0.75387
H         -4.20463        3.95046        0.83024
N         -0.10112        3.83287        0.06071
C          0.83579        4.17493        1.13922
H          0.97714        3.32683        1.83069
H          0.40850        4.99922        1.71894
C          2.19650        4.59627        0.58567
H          2.88007        4.81065        1.41410
H          2.09159        5.51152       -0.00755
C          2.79407        3.51935       -0.31194
H          3.73612        3.86265       -0.75386
C          1.77648        3.13664       -1.38360
H          1.63597        4.00605       -2.03626
H          2.13643        2.31499       -2.00973
C          0.45895        2.73424       -0.73789
H         -0.25685        2.44191       -1.51102
H          0.64663        1.84304       -0.11422
O          3.07429        2.41036        0.57303
C          3.57737        1.24857        0.07816
C          4.24600        1.12998       -1.14357
H          4.40126        1.98902       -1.78630
C          4.71871       -0.11528       -1.54669
H          5.22978       -0.21447       -2.49921
C          4.54774       -1.23910       -0.74436
C          3.90522       -1.10595        0.48891
C          3.41806        0.12759        0.89881
H          2.90809        0.23042        1.85164
Cl         3.68519       -2.47886        1.53503
Cl         5.14039       -2.77993       -1.29469
