64
id_573_ca.log	Energy: -846715.6842558
C         -2.76087        4.22546       -0.92897
H         -2.70412        3.75066       -1.91338
H         -1.91717        4.91674       -0.83597
H         -3.68838        4.80307       -0.87934
C         -2.72460        3.20371        0.21874
H         -3.59489        2.54865        0.13583
C         -2.80625        3.91288        1.56821
H         -2.74594        3.20095        2.39638
H         -3.76117        4.44203        1.63626
H         -1.99980        4.64092        1.68051
C         -1.45757        2.38059        0.09562
N         -0.39656        2.80031        0.70578
C          0.78748        2.11033        0.53218
C          1.95188        2.56269        1.18009
H          1.89198        3.45066        1.80084
C          3.14539        1.89379        1.00928
H          4.03897        2.27301        1.49629
C          3.23863        0.74170        0.19377
C          2.08922        0.28972       -0.43939
H          2.10682       -0.60359       -1.05625
C          0.87501        0.96949       -0.27669
C         -0.33103        0.48505       -0.93708
O         -0.37010       -0.52781       -1.63640
N         -1.47297        1.25556       -0.72312
C         -2.70695        0.78969       -1.37819
H         -3.28632        1.65580       -1.69577
H         -2.40362        0.25232       -2.27730
C         -3.57044       -0.11261       -0.49542
C         -4.90763       -0.37302       -1.19348
H         -5.43475        0.57472       -1.34222
H         -4.71188       -0.80311       -2.18483
C         -5.76762       -1.33479       -0.37751
H         -6.68165       -1.59476       -0.91806
H         -6.06723       -0.86268        0.56610
C         -5.01917       -2.62202       -0.07249
H         -4.74406       -3.15297       -0.98707
H         -5.59605       -3.28515        0.57379
N         -3.73840       -2.30839        0.64769
C         -2.86084       -1.43181       -0.19834
H         -1.92788       -1.28224        0.34714
H         -2.65876       -1.98096       -1.12114
C         -3.04008       -3.55322        1.17893
H         -3.85483       -4.14619        1.60276
C         -2.36055       -4.33147        0.06499
H         -3.04009       -4.56078       -0.76002
H         -2.01092       -5.27810        0.48494
H         -1.49046       -3.79415       -0.32335
C         -2.07705       -3.16491        2.28940
H         -1.21531       -2.61059        1.90693
H         -1.70607       -4.08056        2.75686
H         -2.57613       -2.56736        3.05866
C          4.53412        0.03919        0.02313
C          5.45483       -0.03195        1.07728
H          5.21464        0.41548        2.03711
C          6.67041       -0.69046        0.92575
H          7.38683       -0.75809        1.73726
C          6.95442       -1.27948       -0.29612
C          6.07271       -1.23272       -1.36452
H          6.34009       -1.69993       -2.30607
C          4.86271       -0.56857       -1.19628
H          4.17378       -0.50616       -2.03327
F          8.12875       -1.91855       -0.45148
H         -3.75744        0.39443        0.46220
H         -3.99771       -1.75843        1.47883
