68
id_544_cb.log	Energy: -1763106.4913445
C          0.33147       -0.77700        1.50779
H          0.57448        0.27741        1.34199
H          1.23272       -1.26513        1.91357
H         -0.46641       -0.83528        2.25449
N         -0.13262       -1.36023        0.25178
C          0.91779       -1.32257       -0.76667
H          1.21526       -0.28097       -0.93868
H          0.53339       -1.73500       -1.70266
H          1.81317       -1.89556       -0.46975
C         -0.63129       -2.69580        0.42426
C          0.12426       -3.66157        1.09662
H          1.09930       -3.38819        1.49061
C         -0.34489       -4.96165        1.26115
H          0.26330       -5.69040        1.78792
C         -1.58523       -5.32556        0.74598
H         -1.95831       -6.33693        0.86855
C         -2.35024       -4.38164        0.06810
H         -3.31859       -4.64657       -0.34054
C         -1.88015       -3.07905       -0.08838
S         -2.92687       -1.94335       -0.99433
O         -4.07110       -2.74896       -1.48460
O         -2.11201       -1.35797       -2.08525
N         -3.33482       -0.90055        0.15520
C         -4.05740        0.16550       -0.28099
O         -4.52462        0.32437       -1.42666
N         -4.29728        1.14062        0.69704
C         -4.55295        2.47983        0.15979
H         -5.31229        2.42331       -0.61743
H         -4.94286        3.09759        0.97442
C         -3.26166        3.08391       -0.40053
H         -3.44221        4.09959       -0.76889
H         -2.94114        2.46539       -1.24593
C         -2.19075        3.11191        0.69029
H         -2.47155        3.86190        1.43767
C         -2.00936        1.75778        1.37233
H         -1.59497        1.02591        0.67260
H         -1.33175        1.83843        2.22844
C         -3.36750        1.21843        1.82647
H         -3.81498        1.87805        2.57672
H         -3.24685        0.23270        2.27144
N         -0.88175        3.62625        0.10967
H         -1.13172        4.42836       -0.48697
C         -0.17272        2.63505       -0.77201
H         -0.88533        2.26603       -1.50930
H          0.14018        1.80881       -0.13233
C          1.03313        3.27809       -1.43146
H          0.72319        4.11894       -2.06183
H          1.48937        2.53216       -2.08597
C          2.00953        3.80451       -0.37928
H          2.87367        4.28484       -0.84955
C          1.28061        4.78860        0.52852
H          1.94393        5.12734        1.32855
H          0.98646        5.66291       -0.06130
C          0.05208        4.15068        1.16553
H         -0.50837        4.87505        1.75757
H          0.32439        3.30117        1.79487
O          2.45941        2.76406        0.50277
C          3.20086        1.72869        0.02708
C          3.77841        1.67212       -1.24231
H          3.68474        2.49210       -1.94379
C          4.48907        0.53635       -1.61828
H          4.92810        0.48079       -2.60856
C          4.64464       -0.53234       -0.74422
C          4.09597       -0.44990        0.53817
C          3.38139        0.67238        0.92475
H          2.94780        0.73539        1.91676
Cl         4.26746       -1.75741        1.67129
Cl         5.51637       -1.94388       -1.26573
