58
id_562_cb.log	Energy: -1452435.6287112
C         -0.59359       -1.52961        2.59256
H         -0.52884       -1.29491        3.65056
C         -1.85110       -1.60153        1.97205
H         -2.75573       -1.42536        2.54580
C         -1.92816       -1.90953        0.62733
H         -2.88660       -1.98896        0.12454
C         -0.75826       -2.12209       -0.11698
C          0.51346       -2.04082        0.49591
C          0.56833       -1.75312        1.87533
H          1.53151       -1.69200        2.36884
C          1.69385       -2.15818       -0.34207
C          1.53326       -2.37610       -1.66986
H          2.36282       -2.46034       -2.36144
N          0.29368       -2.51822       -2.23143
H          0.22221       -2.70895       -3.22698
C         -0.89477       -2.39679       -1.55178
O         -1.97017       -2.51473       -2.14596
C          3.06760       -1.92322        0.20009
O          3.47756       -2.45740        1.23622
N          3.81894       -1.07713       -0.54324
H          3.30680       -0.44988       -1.15562
C          5.08107       -0.55147       -0.04861
H          5.63882       -1.37045        0.41349
H          5.65981       -0.18010       -0.89912
C          4.90790        0.57179        0.97914
C          4.35167        1.86900        0.38975
H          5.09200        2.24418       -0.32736
H          4.28034        2.61031        1.20671
N          3.07550        1.72649       -0.30793
C          2.71193        2.99620       -0.94701
H          3.52502        3.29610       -1.61473
H          2.60124        3.79049       -0.18530
C          1.41648        2.86279       -1.74499
H          1.16170        3.82267       -2.20445
H          1.55595        2.12743       -2.54592
C          0.28034        2.38667       -0.85212
H          0.01496        3.18071       -0.14149
C          0.69867        1.12454       -0.11684
H         -0.06650        0.79602        0.59400
H          0.82560        0.33083       -0.86472
C          2.00952        1.34471        0.62234
H          2.28294        0.42177        1.14025
H          1.87988        2.12186        1.39950
O         -0.83711        2.12294       -1.72120
C         -1.96455        1.58200       -1.17578
C         -2.71509        0.73538       -1.99446
H         -2.36428        0.52168       -2.99837
C         -3.88687        0.16721       -1.51761
H         -4.46456       -0.50172       -2.14673
C         -4.31594        0.42441       -0.21749
C         -3.56182        1.26812        0.59645
C         -2.39235        1.85511        0.12437
H         -1.82770        2.51106        0.77709
Cl        -4.05120        1.60604        2.23135
Cl        -5.76100       -0.34602        0.36904
O          6.18414        0.92754        1.49843
H          6.51164        0.17252        2.01279
H          4.26649        0.20707        1.79223
