42
id_504_ca.log	Energy: -907480.8354169
C         -5.07625        1.05477       -0.22293
H         -5.64431        0.79519       -1.12235
H         -5.50835        1.95859        0.20936
H         -5.18166        0.23761        0.49293
C         -3.63438        1.29311       -0.57414
C         -3.04510        2.55391       -0.41924
H         -3.64170        3.35986       -0.00292
C         -1.72263        2.79271       -0.77704
H         -1.26557        3.76469       -0.64173
C         -0.99057        1.76344       -1.33536
H          0.03425        1.84638       -1.67481
N         -1.57496        0.56610       -1.48836
C         -2.83985        0.27661       -1.10367
C         -3.25228       -1.15081       -1.18637
H         -4.32633       -1.26379       -1.35097
H         -2.70945       -1.70402       -1.95843
S         -2.91228       -2.04635        0.40778
O         -3.61042       -1.28319        1.51333
C         -1.21489       -1.49355        0.54495
N         -0.93460       -0.45584        1.37526
H         -1.60519        0.00465        1.98518
C          0.39271       -0.16069        1.17258
C          1.23405        0.81527        1.70903
H          0.86792        1.52804        2.44039
C          2.55099        0.85939        1.27463
C          2.99756       -0.08123        0.29405
C          2.14903       -1.04489       -0.24081
H          2.50073       -1.74988       -0.98464
C          0.83002       -1.08833        0.20810
N         -0.21472       -1.92656       -0.16847
C          4.41264       -0.06653       -0.17234
O          5.34639        0.43429        0.42466
O          4.57040       -0.68823       -1.34906
C          5.91802       -0.76296       -1.83123
H          5.86204       -1.30662       -2.77238
H          6.54594       -1.29900       -1.11703
H          6.31617        0.24045       -1.99313
C          3.44880        1.92662        1.84833
H          2.85443        2.62597        2.44040
H          3.96536        2.48298        1.06208
H          4.21804        1.49340        2.49305
H         -1.01409       -0.18279       -1.90104
