63
id_519_ca.log	Energy: -1396953.7690578
C          8.51648        2.85940        0.46786
H          9.17037        3.68664        0.72564
C          8.01778        2.02483        1.46842
H          8.28297        2.20023        2.50635
C          7.18113        0.96254        1.13999
H          6.79703        0.31494        1.92429
C          6.83170        0.72923       -0.19427
C          7.33305        1.56543       -1.19118
H          7.06063        1.38508       -2.22748
C          8.17404        2.62751       -0.86182
H          8.55859        3.27313       -1.64523
C          5.91325       -0.42319       -0.56618
C          6.58384       -1.70577       -0.07099
O          7.48413       -2.25928       -0.66305
O          6.15295       -2.15657        1.11107
H          5.40284       -1.57874        1.38321
N          4.57313       -0.32113        0.02389
C          3.69458       -1.32115       -0.60999
H          4.15506       -2.31020       -0.52071
H          3.59560       -1.10046       -1.68707
C          2.31603       -1.34148        0.03691
H          1.71852       -2.11011       -0.46872
H          2.40788       -1.63013        1.09256
C          1.65736        0.03614       -0.06265
H          1.49074        0.27185       -1.12174
C          2.61203        1.09109        0.50513
H          2.20079        2.09544        0.35845
H          2.72460        0.93273        1.58518
C          3.98467        1.01633       -0.15080
H          4.64371        1.75680        0.30572
H          3.90331        1.25610       -1.22583
C          0.34304        0.12899        0.70010
H         -0.15629        1.08473        0.51693
H          0.52208        0.02178        1.77396
N         -0.65505       -0.93628        0.34784
C         -1.03157       -0.92623       -1.10595
H         -0.11881       -1.05584       -1.68712
H         -1.44867        0.06459       -1.30393
C         -2.02202       -2.04023       -1.40958
H         -2.29833       -1.97622       -2.46512
H         -1.54660       -3.01290       -1.24390
C         -3.26493       -1.95313       -0.53577
H         -3.92381       -2.79990       -0.74935
C         -2.86362       -1.92682        0.93753
H         -2.42051       -2.89467        1.19635
H         -3.73191       -1.77922        1.58579
C         -1.87490       -0.80757        1.21683
H         -2.30065        0.17488        0.99638
H         -1.53143       -0.82575        2.25171
O         -3.91394       -0.72880       -0.90650
C         -5.17255       -0.47400       -0.45652
C         -6.00527       -1.40768        0.16363
H         -5.68083       -2.42401        0.35058
C         -7.28632       -1.02842        0.55085
H         -7.93791       -1.74934        1.03281
C         -7.74857        0.26278        0.32954
C         -6.90816        1.19017       -0.29140
C         -5.62805        0.82784       -0.68026
H         -4.97268        1.54580       -1.16105
Cl        -7.43872        2.81917       -0.58920
Cl        -9.35749        0.69190        0.83166
H          5.87001       -0.49386       -1.66360
H         -0.23044       -1.85197        0.55236
