46
id_550_cb.log	Energy: -1628860.6730609
C          6.37203        1.86459        0.78912
H          6.70958        2.83904        1.12503
C          5.07159        1.72305        0.32053
H          4.40789        2.57532        0.28209
C          4.60728        0.47596       -0.11641
C          5.49278       -0.61165       -0.09068
C          6.79317       -0.43649        0.36780
C          7.25233        0.78698        0.81873
H          8.27303        0.87561        1.17236
F          7.61171       -1.49521        0.37586
Cl         5.00274       -2.19238       -0.61862
N          3.31639        0.28308       -0.62075
H          3.17442       -0.53237       -1.20678
C          2.19453        0.97075       -0.21061
O          2.21187        1.85954        0.63376
N          1.05879        0.55477       -0.85978
H          1.11156       -0.27977       -1.43503
C         -0.23770        1.01484       -0.60594
C         -0.54123        2.25888       -0.07432
H          0.25325        2.94375        0.18510
C         -1.86784        2.63512        0.12085
H         -2.09661        3.60931        0.53674
C         -2.89863        1.78197       -0.22464
C         -2.62642        0.51869       -0.78862
C         -1.28394        0.13787       -0.97308
O         -0.86664       -1.04681       -1.47319
H         -1.61797       -1.51990       -1.89476
S         -3.91893       -0.67627       -1.14518
O         -3.32050       -1.61955       -2.10417
O         -5.12831        0.01670       -1.55666
N         -4.26431       -1.54868        0.19576
C         -3.22110       -2.45281        0.73198
H         -2.54731       -2.75071       -0.07327
H         -3.75039       -3.34991        1.07252
C         -2.46507       -1.82999        1.90129
H         -1.78496       -2.58038        2.31270
H         -1.85472       -0.98843        1.55222
N         -3.34515       -1.33923        2.96572
H         -3.87699       -2.14123        3.31108
C         -4.30906       -0.38889        2.40309
H         -4.99891       -0.06571        3.18719
H         -3.75049        0.49393        2.07283
C         -5.12309       -0.96324        1.24770
H         -5.74476       -1.78797        1.61466
H         -5.78417       -0.22062        0.79814
Cl        -4.51533        2.36384        0.08109
