26
id_581_cb.log	Energy: -372665.2158720
C         -1.28196        1.37366       -0.03913
H         -1.43479        2.45157       -0.06988
C          0.02560        0.84710       -0.01526
C          0.18219       -0.54047        0.02310
C         -0.94502       -1.38231        0.03719
H         -0.80361       -2.46231        0.06644
C         -2.25747       -0.88414        0.01766
C         -2.37744        0.53766       -0.02198
O         -3.66279        1.04466       -0.04002
H         -4.23620        0.24996       -0.01833
O         -3.35654       -1.60759        0.03287
C          1.55791       -1.17705        0.08823
H          1.58762       -2.07914       -0.53350
H          1.76975       -1.49178        1.12069
C          2.64320       -0.20728       -0.35090
C          2.51294        1.12647        0.36356
H          2.50903        0.94733        1.44726
H          3.36675        1.77155        0.12900
C          1.20891        1.79267       -0.07286
H          1.33236        2.16880       -1.09815
H          1.01729        2.66932        0.55529
N          3.98254       -0.81295       -0.05163
H          4.74556       -0.20402       -0.36868
H          4.09148       -1.72360       -0.51309
H          4.09833       -0.96037        0.95882
H          2.62028       -0.06113       -1.43490
