30
id_571_cb.log	Energy: -2219818.9045970
C         -4.18987        2.72204        0.43749
H         -4.29033        3.78257        0.64641
C         -5.29727        1.97761        0.03188
H         -6.26754        2.44820       -0.09022
C         -5.15807        0.61425       -0.20986
H         -6.01233        0.02106       -0.51998
C         -3.91305        0.01057       -0.06686
C         -2.78918        0.74595        0.33054
C         -2.95253        2.11013        0.60249
H         -2.10022        2.68089        0.95207
N         -1.55473        0.10563        0.52968
H         -1.57986       -0.87511        0.78773
C         -0.33325        0.62941        0.16790
O         -0.20423        1.74959       -0.33073
N          0.70592       -0.22191        0.41249
H          0.52264       -1.13752        0.82310
C          2.06734       -0.01683        0.19375
C          2.64471        1.14230       -0.32093
H          2.02385        1.98416       -0.59440
C          4.02758        1.22741       -0.48644
H          4.48225        2.12500       -0.88588
C          4.79647        0.12871       -0.12424
C          4.25108       -1.04855        0.39420
H          4.88682       -1.88381        0.66479
C          2.86226       -1.16324        0.57311
O          2.27781       -2.22026        1.05155
N          6.23494        0.20762       -0.29218
O          6.72802        1.24256       -0.73469
O          6.92105       -0.76377        0.01346
Br        -3.74990       -1.83795       -0.44195
