46
id_599_cb.log	Energy: -555314.0093353
C         -3.50770        1.48450       -1.25181
H         -2.44782        1.29068       -1.44454
H         -3.57125        2.17227       -0.40006
H         -3.92497        1.99335       -2.12628
C         -4.25794        0.19008       -0.95579
H         -4.18444       -0.48633       -1.81538
H         -5.32581        0.40128       -0.82420
C         -3.76433       -0.50210        0.31333
H         -4.39365       -1.38589        0.53185
H         -3.90076        0.19279        1.15105
N         -2.35039       -0.87239        0.26933
C         -2.12108       -2.05753       -0.55664
H         -2.41721       -2.97655       -0.01643
H         -2.76961       -1.99118       -1.43731
C         -0.67517       -2.17505       -1.03741
H          0.00387       -2.25664       -0.18067
H         -0.57930       -3.11410       -1.59557
C         -0.24314       -1.00366       -1.91416
H         -0.34253       -0.05607       -1.37458
H         -0.86159       -0.94261       -2.81775
H          0.80227       -1.10781       -2.22530
C         -1.81454       -1.04529        1.61888
H         -2.55882       -1.51637        2.28517
H         -0.96282       -1.73107        1.57432
C         -1.33274        0.27625        2.22855
H         -2.17188        0.97434        2.32712
H         -0.96415        0.07186        3.24118
C         -0.25116        0.91258        1.38859
C         -0.46386        2.12443        0.73483
H         -1.40612        2.64899        0.86845
C          0.51477        2.67567       -0.09287
H          0.35087        3.62220       -0.60104
C          1.71347        2.00448       -0.28597
C          1.94676        0.77827        0.35976
C          0.97107        0.25475        1.20486
H          1.16315       -0.68251        1.71469
N          3.19351        0.16377        0.12055
H          3.91839        0.77623       -0.23600
C          3.44568       -1.17179        0.08868
O          2.60249       -2.02762        0.36076
C          4.84750       -1.55389       -0.31330
H          4.79765       -2.09571       -1.26208
H          5.25086       -2.23519        0.43960
H          5.51273       -0.69613       -0.42251
O          2.71903        2.47686       -1.08845
H          2.46354        3.34640       -1.43854
