41
id_504_cb.log	Energy: -907198.6366464
C         -5.37529        0.58056       -0.18531
H         -5.88508        0.18452       -1.07069
H         -5.97877        1.39870        0.21467
H         -5.33695       -0.21732        0.55990
C         -3.99749        1.07433       -0.53896
C         -3.66507        2.42487       -0.41605
H         -4.40340        3.12173       -0.02868
C         -2.40195        2.86997       -0.78439
H         -2.12120        3.91298       -0.68785
C         -1.50179        1.94240       -1.29760
H         -0.51010        2.25104       -1.61859
N         -1.79051        0.64688       -1.43264
C         -3.00123        0.22264       -1.04239
C         -3.21265       -1.25993       -1.12063
H         -4.25601       -1.54879       -1.27263
H         -2.59043       -1.71873       -1.89378
S         -2.72474       -2.10144        0.44729
O         -3.41391       -1.36704        1.58733
C         -1.05610       -1.45962        0.50205
N         -0.79921       -0.38257        1.28922
H         -1.49242        0.11146        1.84370
C          0.51945       -0.06806        1.07536
C          1.34041        0.94540        1.57131
H          0.95413        1.69099        2.25848
C          2.66528        0.98394        1.15890
C          3.14059       -0.00342        0.24093
C          2.30974       -1.00487       -0.25564
H          2.68414       -1.74545       -0.95244
C          0.98319       -1.03986        0.16747
N         -0.04030       -1.91861       -0.16902
C          4.56253        0.00156       -0.19872
O          5.47834        0.56044        0.37542
O          4.75580       -0.70117       -1.32473
C          6.11387       -0.78263       -1.77403
H          6.08824       -1.39446       -2.67381
H          6.73793       -1.25186       -1.01099
H          6.49629        0.21417       -2.00176
C          3.53831        2.09278        1.69184
H          2.92385        2.81296        2.23681
H          4.06076        2.61654        0.88726
H          4.30230        1.70630        2.37173
