69
id_510_ca.log	Energy: -1446270.9112676
C          7.75798        1.94545       -0.05319
H          6.79530        2.07113       -0.56047
H          8.49292        2.57422       -0.56176
H          7.63437        2.32785        0.96639
C          8.20776        0.50619       -0.04420
C          9.45947        0.16258       -0.56041
H         10.08851        0.94610       -0.97549
C          9.91351       -1.15514       -0.55056
H         10.89076       -1.39471       -0.95876
C          9.11058       -2.15604       -0.01261
H          9.45296       -3.18610        0.00651
C          7.86078       -1.82636        0.50851
H          7.23125       -2.60283        0.93636
C          7.39637       -0.50843        0.49888
C          6.01609       -0.19694        1.03125
H          5.98909        0.79219        1.49787
H          5.74606       -0.93507        1.79170
C          4.97595       -0.21797       -0.09681
C          4.77738       -1.65727       -0.57194
O          4.60362       -2.60913        0.16367
O          4.75439       -1.76544       -1.90645
H          4.57311       -2.69845       -2.13624
N          3.70173        0.40270        0.28058
C          2.78008        0.46556       -0.85896
H          3.31498        0.88938       -1.71444
H          2.43531       -0.54320       -1.15191
C          1.56048        1.31826       -0.52848
H          1.87442        2.35195       -0.33300
H          0.90473        1.32841       -1.40836
C          0.83412        0.76770        0.70150
H          0.44416       -0.23087        0.46436
C          1.83211        0.60913        1.85353
H          1.34673        0.13200        2.71179
H          2.17835        1.59971        2.17409
C          3.03234       -0.22749        1.42434
H          2.69217       -1.24805        1.17863
H          3.73706       -0.30308        2.25563
C         -0.30002        1.66664        1.17522
H          0.09755        2.62812        1.51265
H         -0.85731        1.20576        1.99595
N         -1.31569        1.99460        0.11789
C         -1.99194        0.77215       -0.43426
H         -1.21794        0.11596       -0.83147
H         -2.47722        0.28536        0.41629
C         -2.98370        1.14798       -1.52450
H         -3.45678        0.22798       -1.87877
H         -2.45228        1.59148       -2.37391
C         -4.01945        2.15144       -1.02356
H         -4.68031        2.47212       -1.83430
C         -3.32034        3.36508       -0.42701
H         -2.80273        3.89928       -1.23069
H         -4.05514        4.04516        0.01138
C         -2.32790        2.96831        0.65357
H         -1.77396        3.83175        1.02436
H         -2.81709        2.46734        1.49220
O         -4.79995        1.58772        0.03938
C         -5.73730        0.64484       -0.24869
C         -6.13407        0.27674       -1.53594
H         -5.68873        0.72070       -2.41772
C         -7.12614       -0.68547       -1.69533
H         -7.43773       -0.97532       -2.69304
C         -7.72633       -1.28460       -0.59506
C         -7.32210       -0.91016        0.68896
C         -6.33398        0.04559        0.86378
H         -6.01873        0.33834        1.85918
Cl        -8.04049       -1.63008        2.09974
Cl        -8.96128       -2.48448       -0.84169
H          5.35995        0.35057       -0.94971
H         -0.83085        2.45934       -0.66243
