53
id_558_ca.log	Energy: -1506727.7127532
C         -3.11173        0.69704        1.13153
H         -2.32376        1.19915        1.67919
C         -4.28140        1.39471        0.84747
H         -4.38589        2.42328        1.17564
C         -5.32111        0.79578        0.14769
C         -5.18310       -0.52890       -0.27475
C         -4.02325       -1.23616       -0.00140
H         -3.91388       -2.26465       -0.32704
C         -2.98303       -0.62645        0.70498
O         -1.90458       -1.42184        0.93879
C         -0.73790       -0.86261        1.55668
H         -1.03174       -0.28317        2.43704
C          0.03590        0.00378        0.56442
H         -0.58750        0.80610        0.15940
H          0.87331        0.47689        1.09248
C          0.55989       -0.81605       -0.60327
H          1.17087       -0.20754       -1.26896
H         -0.24654       -1.28276       -1.17537
N          1.42529       -1.94544       -0.11015
C          0.62847       -2.84310        0.80120
H         -0.18483       -3.24356        0.19067
H          1.28518       -3.65620        1.10607
C          0.11058       -2.05094        1.99101
H         -0.47822       -2.72015        2.62357
H          0.95266       -1.67971        2.58573
C          2.05461       -2.70525       -1.25059
H          1.37251       -3.52566       -1.48112
H          2.10197       -2.03417       -2.11077
C          3.45769       -3.24599       -0.94251
C          4.56878       -2.19732       -1.01954
H          5.51575       -2.68234       -0.77324
H          4.63071       -1.80876       -2.03733
N          4.37659       -1.07138       -0.11477
H          4.72881       -1.14899        0.83286
C          3.83383        0.09743       -0.53890
O          3.47071        0.26910       -1.70573
C          3.62237        1.14265        0.47996
C          3.94048        1.14630        1.82860
H          4.44754        0.42943        2.45924
N          3.48409        2.30734        2.32082
H          3.55821        2.63307        3.27892
N          2.88014        3.07593        1.41026
C          2.95789        2.37914        0.28914
C          2.33644        2.93931       -0.95137
F          1.81402        4.14908       -0.72044
F          1.33686        2.16132       -1.40173
F          3.21829        3.07217       -1.94885
O          3.49473       -3.96789        0.27821
H          3.63397       -3.34835        1.01377
Cl        -6.45545       -1.32707       -1.15114
Cl        -6.76361        1.70815       -0.18693
H          3.66533       -3.97492       -1.73179
H          2.17475       -1.52905        0.46206
