60
id_526_ca.log	Energy: -1679101.7563851
C          0.43583       -3.71971        0.39470
H          1.45886       -4.07613        0.47695
C          0.16877       -2.49607       -0.22235
H          0.98113       -1.89930       -0.62988
C         -1.14373       -2.03878       -0.31928
H         -1.36131       -1.09430       -0.80676
C         -2.19908       -2.79960        0.19374
C         -1.92878       -4.03262        0.79443
H         -2.74782       -4.62769        1.18789
C         -0.61496       -4.48719        0.90089
H         -0.41059       -5.44008        1.38043
C         -3.62161       -2.31266        0.10548
O         -4.55681       -3.14078        0.15178
N         -3.72386       -0.97383       -0.00682
S         -5.21521       -0.35714       -0.16189
O         -5.83195       -0.73835       -1.44768
O         -6.04894       -0.57920        1.03506
N         -4.99809        1.29634       -0.24796
C         -4.25137        1.80700       -1.41105
H         -4.51835        1.21930       -2.29031
H         -4.61206        2.82890       -1.57472
C         -2.73082        1.82045       -1.21951
H         -2.28298        2.30145       -2.09491
H         -2.37212        0.79048       -1.16120
C         -2.39107        2.57757        0.05941
H         -2.68032        3.62937       -0.05101
C         -3.12025        1.99328        1.26556
H         -2.79199        0.96951        1.46266
H         -2.92163        2.60052        2.15606
C         -4.62568        1.99145        0.99603
H         -4.98328        3.02120        0.88213
H         -5.16687        1.54410        1.82968
N         -0.89779        2.63013        0.32842
H         -0.80236        3.04238        1.26800
C         -0.22212        1.28731        0.37305
H         -0.79295        0.63885        1.03760
H         -0.25252        0.88729       -0.64331
C          1.21343        1.44032        0.84803
H          1.65519        0.44133        0.90353
H          1.23795        1.87571        1.85482
C          1.97559        2.35249       -0.10774
H          2.01372        1.91314       -1.11332
C          1.28288        3.70505       -0.18373
H          1.32668        4.19100        0.79881
H          1.78681        4.35191       -0.90750
C         -0.16638        3.54111       -0.61854
H         -0.23478        3.08758       -1.61013
H         -0.69208        4.49685       -0.62021
O          3.30644        2.59773        0.35374
C          4.24326        1.61149        0.24913
C          5.48918        1.89579        0.82049
H          5.64164        2.85129        1.31197
C          6.51267        0.96513        0.75416
H          7.47900        1.18558        1.19660
C          6.31127       -0.26353        0.12327
C          5.07052       -0.53992       -0.44325
C          4.03113        0.38927       -0.38893
H          3.08282        0.13215       -0.84582
Cl         4.76654       -2.06017       -1.23278
Cl         7.61463       -1.41381        0.06511
