42
id_566_cb.log	Energy: -1887601.9929505
C          5.07752       -1.44882       -0.11223
H          5.87070       -2.18763       -0.15429
C          3.96776       -1.64183        0.70557
H          3.86696       -2.53972        1.30721
C          2.96415       -0.68465        0.74088
C          3.02563        0.50022       -0.00629
C          4.14127        0.67513       -0.83745
H          4.22693        1.58012       -1.43179
C          5.13797       -0.29146       -0.88201
Cl         6.51960       -0.03372       -1.92385
C          1.96374        1.51158        0.02019
C          1.41858        2.20161       -1.09106
H          1.66599        2.06178       -2.13627
N          0.49958        3.08485       -0.73592
N          0.43664        2.97336        0.61544
H         -0.17005        3.58490        1.15067
C          1.28820        2.05361        1.11600
N          1.46426        1.88084        2.47511
H          0.64397        2.12577        3.02481
H          1.77931        0.94418        2.71245
O          1.87417       -0.92379        1.57699
C          0.66588       -1.18234        0.99737
C          0.51786       -1.45223       -0.36267
H          1.36764       -1.47317       -1.03732
C         -0.75232       -1.68542       -0.85304
C         -1.88665       -1.67069       -0.04987
C         -1.72423       -1.41770        1.30867
H         -2.59283       -1.39589        1.95907
C         -0.45899       -1.18770        1.83108
Cl        -0.27018       -0.91668        3.53946
S         -3.52723       -1.79681       -0.77412
O         -3.54326       -3.04149       -1.57502
O         -4.42702       -1.81834        0.40807
N         -3.71437       -0.57287       -1.74066
C         -3.67398        0.68688       -1.12521
C         -2.53727        1.42021       -0.89999
H         -1.51073        1.14886       -1.11720
S         -2.93438        2.94857       -0.21766
C         -4.60135        2.50920       -0.27565
H         -5.36573        3.19394        0.07298
N         -4.85142        1.32954       -0.76232
F         -0.87924       -1.92100       -2.17055
