66
id_548_cb.log	Energy: -1728429.8258691
C         -1.74101       -1.64764        0.50897
H         -2.27613       -1.71983       -0.44345
H         -1.90704       -0.64207        0.91712
H         -2.18266       -2.36125        1.21329
C         -0.26517       -1.89377        0.33232
C          0.57267       -1.98739        1.45197
H          0.14165       -1.92439        2.44852
C          1.94735       -2.15805        1.31280
H          2.58523       -2.23585        2.18655
C          2.49719       -2.22930        0.03205
C          1.68528       -2.15077       -1.09807
H          2.11927       -2.21548       -2.09167
C          0.30875       -1.99362       -0.93972
H         -0.32632       -1.93416       -1.82063
S          4.26961       -2.37245       -0.18619
O          4.47900       -3.06420       -1.47791
O          4.79458       -3.10770        0.98810
N          4.84172       -0.88604       -0.37616
C          4.68585       -0.02364        0.66879
O          4.37108       -0.33238        1.83748
N          4.93539        1.31310        0.35765
C          4.29639        2.27580        1.25982
H          4.50270        2.00877        2.29452
H          4.74564        3.25502        1.06728
C          2.78292        2.33417        1.01951
H          2.35671        3.09249        1.68165
H          2.34145        1.36279        1.27799
C          2.51643        2.67518       -0.44676
H          2.81026        3.71603       -0.62618
C          3.28711        1.76599       -1.40415
H          2.93328        0.73242       -1.32631
H          3.14808        2.10143       -2.43855
C          4.77116        1.74549       -1.03517
H          5.21088        2.74398       -1.12268
H          5.31563        1.07641       -1.69822
N          1.02871        2.65682       -0.78733
H          0.95726        3.08912       -1.71945
C          0.43104        1.28179       -0.91085
H          0.54643        0.79320        0.06180
H          0.99922        0.73575       -1.65989
C         -1.02552        1.36326       -1.33827
H         -1.40666        0.33894       -1.39726
H         -1.09884        1.80930       -2.33876
C         -1.82162        2.19998       -0.35149
H         -1.77930        1.73370        0.64275
C         -1.23127        3.59626       -0.28197
H         -1.31209        4.08072       -1.26279
H         -1.76902        4.20710        0.44957
C          0.22348        3.50815        0.15575
H          0.29377        3.03858        1.13877
H          0.70075        4.48936        0.18859
O         -3.20211        2.32203       -0.74704
C         -3.89898        1.13639       -0.68681
C         -4.12490        0.41028       -1.85226
H         -3.74373        0.79361       -2.79380
C         -4.81418       -0.79326       -1.79582
H         -4.98755       -1.37015       -2.69815
C         -5.26621       -1.26782       -0.56748
C         -5.08405       -0.56563        0.62991
C         -4.39842        0.65446        0.52572
Cl        -4.15175        1.60905        1.96378
C         -5.55670       -1.05725        1.96866
H         -6.08461       -2.00605        1.88569
H         -4.70442       -1.19402        2.64340
H         -6.22848       -0.32748        2.43148
Cl        -6.08718       -2.81565       -0.56501
