66
id_589_ca.log	Energy: -928474.2899030
C         -8.31939       -2.05634        0.76575
H         -9.36499       -2.10967        1.06853
H         -7.68543       -2.44831        1.56814
H         -8.17033       -2.65076       -0.14180
O         -8.04995       -0.68225        0.52673
C         -6.78417       -0.35625        0.12961
C         -6.54684        1.00482       -0.09878
H         -7.36021        1.70894        0.04592
C         -5.29207        1.42951       -0.50596
H         -5.11759        2.48842       -0.68273
C         -4.24719        0.51594       -0.69954
C         -4.50051       -0.83384       -0.46833
H         -3.70663       -1.55967       -0.62363
C         -5.75767       -1.28147       -0.05618
H         -5.91995       -2.33981        0.11043
C         -2.87114        0.99235       -1.10438
H         -2.94470        1.75779       -1.88686
H         -2.30170        0.14840       -1.50451
C         -2.16780        1.58368        0.11311
H         -1.91852        0.80748        0.84235
H         -2.79883        2.33389        0.59589
N         -0.87987        2.28173       -0.21576
C          0.10412        1.38343       -0.91082
H          0.25922        0.54073       -0.23187
H         -0.36604        1.02407       -1.82583
C          1.39845        2.11895       -1.21834
H          1.20169        2.92624       -1.93307
H          2.08123        1.41007       -1.69744
C          2.03689        2.70799        0.04452
H          2.89939        3.31377       -0.23638
C          1.01393        3.59421        0.75131
H          1.41112        3.96608        1.69942
H          0.80542        4.46008        0.11404
C         -0.28819        2.86236        1.03829
H         -1.03688        3.53465        1.45974
H         -0.15794        2.01944        1.72466
N          2.52533        1.67279        0.96267
H          1.79087        1.13284        1.41214
C          3.59227        0.91203        0.55981
N          4.52818        1.30043       -0.27929
C          5.40506        0.22453       -0.33765
C          6.57807        0.06497       -1.07682
H          6.93526        0.86207       -1.72159
C          7.26553       -1.14072       -0.96626
H          8.17867       -1.28740       -1.53465
C          6.80046       -2.17358       -0.13784
H          7.35746       -3.10317       -0.07903
C          5.63541       -2.03007        0.61332
H          5.27393       -2.82710        1.25558
C          4.96118       -0.81968        0.49820
N          3.80217       -0.33886        1.09715
C          2.80059       -1.13420        1.79183
H          3.29682       -2.04989        2.12486
H          2.47314       -0.60720        2.69335
C          1.61040       -1.45802        0.90898
C          0.32549       -1.49922        1.45474
H          0.18305       -1.28857        2.51138
C         -0.78050       -1.79800        0.65850
H         -1.78664       -1.82665        1.06493
C         -0.56892       -2.04453       -0.68809
C          0.69050       -2.00504       -1.26751
H          0.80198       -2.19870       -2.32889
C          1.78210       -1.70964       -0.45629
H          2.77553       -1.66890       -0.89671
F         -1.63104       -2.31224       -1.47687
H         -1.09644        3.06141       -0.85293
