61
id_530_ca.log	Energy: -1741614.5688131
C         -6.57486        3.29683       -0.09773
H         -6.19809        4.31136       -0.15710
C         -5.91628        2.23644       -0.70704
H         -5.00070        2.40342       -1.26430
C         -6.45838        0.95766       -0.59585
C         -7.63907        0.70357        0.10202
H         -8.04057       -0.30262        0.16416
C         -8.29688        1.76284        0.71051
H         -9.21920        1.62031        1.26174
C         -7.74781        3.03383        0.59596
F         -8.38339        4.05488        1.18117
S         -5.62923       -0.39378       -1.36932
O         -6.60117       -1.40244       -1.77434
O         -4.70274        0.12693       -2.37118
N         -4.78555       -0.99916       -0.03685
H         -4.49441       -0.26893        0.61225
C         -3.93574       -2.09839       -0.26570
O         -3.95637       -2.66610       -1.35412
N         -3.19453       -2.51549        0.79639
C         -2.06400       -3.39912        0.48686
H         -1.88936       -4.02901        1.36378
H         -2.33032       -4.03860       -0.35150
C         -0.82166       -2.56454        0.16474
H         -1.03195       -1.96779       -0.73011
H          0.01729       -3.23234       -0.05075
C         -0.52252       -1.66001        1.35770
H         -0.29643       -2.28416        2.22939
C         -1.71557       -0.76960        1.70373
H         -1.50009       -0.17505        2.59744
H         -1.94937       -0.08795        0.87703
C         -2.92493       -1.67108        1.96446
H         -3.80837       -1.09641        2.24187
H         -2.71577       -2.34499        2.80053
N          0.72813       -0.82572        1.16584
C          1.98507       -1.63932        1.31546
H          1.89947       -2.19202        2.25140
H          2.00971       -2.34160        0.47890
C          3.20215       -0.72889        1.31702
H          4.09216       -1.35278        1.43437
H          3.15700       -0.04440        2.17261
C          3.25665        0.09820        0.03583
H          3.38146       -0.55101       -0.84011
C          1.96936        0.89470       -0.11629
H          1.89118        1.61659        0.70529
H          1.97412        1.44912       -1.05815
C          0.76680       -0.03547       -0.11373
H          0.82887       -0.76014       -0.92841
H         -0.16641        0.52185       -0.19357
O          4.31705        1.05218        0.08514
C          5.59851        0.63246       -0.10665
C          5.97554       -0.67007       -0.43993
H          5.24745       -1.46309       -0.55812
C          7.32250       -0.96353       -0.62690
H          7.62090       -1.97380       -0.88523
C          8.29598        0.01715       -0.48665
C          7.90888        1.31734       -0.15201
C          6.57123        1.62519        0.03845
H          6.26845        2.63376        0.29708
Cl         9.08771        2.58192        0.03491
Cl         9.96772       -0.39719       -0.72885
H          0.72857       -0.14275        1.93746
