60
id_514_ca.log	Energy: -1372295.0515236
C          6.09510        3.87003       -0.70001
H          6.32029        4.91119       -0.90921
C          5.30105        3.53334        0.39658
H          4.90811        4.31190        1.04317
C          5.01186        2.19947        0.66858
H          4.39500        1.94044        1.52359
C          5.50989        1.18986       -0.16102
C          6.30263        1.53059       -1.25682
H          6.68656        0.74629       -1.90369
C          6.59579        2.86683       -1.52596
H          7.21144        3.12167       -2.38299
C          5.21753       -0.27458        0.13219
C          6.01795       -0.63604        1.37634
O          7.13440       -1.10729        1.33161
O          5.40416       -0.32079        2.52088
H          6.00917       -0.53414        3.25808
N          3.79114       -0.55579        0.29168
C          3.60895       -1.99022        0.55604
H          4.02760       -2.59046       -0.27183
H          4.15080       -2.25850        1.46700
C          2.13485       -2.33667        0.74145
H          1.74527       -1.79655        1.61033
H          2.03669       -3.41118        0.92828
C          1.37927       -1.94400       -0.52035
H          1.76499       -2.53724       -1.35665
C          1.58333       -0.46510       -0.81669
H          1.08805       -0.16944       -1.74637
H          1.18370        0.14497       -0.00052
C          3.08040       -0.19426       -0.94276
H          3.48948       -0.75546       -1.80288
H          3.23130        0.86876       -1.14034
N         -0.08056       -2.33614       -0.42526
C         -0.73318       -2.43952       -1.77632
H         -0.09535       -3.07148       -2.39526
H         -0.75873       -1.43122       -2.19419
C         -2.12890       -3.02903       -1.64112
H         -2.59015       -3.05920       -2.63151
H         -2.06188       -4.05681       -1.26883
C         -2.99887       -2.22443       -0.68477
H         -3.96450       -2.72477       -0.56443
C         -2.29234       -2.06128        0.66034
H         -2.22221       -3.04279        1.14200
H         -2.85761       -1.40656        1.32945
C         -0.90510       -1.46379        0.48097
H         -0.95852       -0.48130        0.00806
H         -0.38273       -1.37864        1.43388
O         -3.18938       -0.94856       -1.31193
C         -4.13659       -0.09696       -0.83493
C         -4.13987        1.18352       -1.39902
H         -3.39730        1.43020       -2.14987
C         -5.08306        2.11500       -1.00268
H         -5.08725        3.10755       -1.44002
C         -6.03507        1.78888       -0.03682
C         -6.02582        0.51467        0.52219
C         -5.08264       -0.43456        0.13204
H         -5.11056       -1.41516        0.59061
Cl        -7.19293        0.06017        1.72945
Cl        -7.20431        2.98388        0.44271
H          5.65483       -0.88146       -0.67772
H         -0.09392       -3.28309       -0.01885
