60
id_531_ca.log	Energy: -1741369.0795159
C          0.62839       -1.43862        2.86748
H          0.78822       -1.29383        3.93091
C          1.61758       -1.97820        2.04698
H          2.57306       -2.27237        2.46762
C          1.36222       -2.15446        0.68763
C          0.13469       -1.79415        0.12789
H         -0.05288       -1.93964       -0.93211
C         -0.86254       -1.26522        0.94303
H         -1.83846       -0.99621        0.54987
C         -0.58738       -1.10245        2.29279
F         -1.55794       -0.59685        3.08684
S          2.62104       -2.85258       -0.38210
O          3.48081       -3.70438        0.47034
O          1.89560       -3.58631       -1.44222
N          3.36273       -1.63231       -1.10399
C          4.04740       -0.75588       -0.31304
O          4.35349       -0.92832        0.88528
N          4.43710        0.41219       -0.96610
C          3.60058        0.87899       -2.07878
H          4.14916        1.67581       -2.59068
H          3.44003        0.06982       -2.78752
C          2.26254        1.39695       -1.54612
H          1.75287        0.55336       -1.06593
H          1.63811        1.75030       -2.37323
C          2.51839        2.51741       -0.53976
H          2.90475        3.39517       -1.06986
C          3.51550        2.12154        0.55012
H          3.77048        3.00096        1.15250
H          3.07904        1.36830        1.21601
C          4.77877        1.53274       -0.08315
H          5.47166        1.19950        0.68762
H          5.28696        2.28613       -0.69279
N          1.23413        2.99995        0.11300
H          1.52717        3.56512        0.92337
C          0.36505        1.89482        0.64847
H         -0.01578        1.34378       -0.21457
H          0.98794        1.23069        1.25113
C         -0.77602        2.48419        1.45834
H         -0.38710        3.06856        2.30044
H         -1.35910        1.66124        1.87982
C         -1.63261        3.40138        0.58748
H         -2.44290        3.85282        1.16833
C         -0.75715        4.48794       -0.02362
H         -1.34048        5.09929       -0.71810
H         -0.40282        5.14054        0.78191
C          0.43222        3.90709       -0.77900
H          1.10447        4.69624       -1.11888
H          0.11656        3.30880       -1.63633
O         -2.18438        2.68610       -0.53409
C         -2.97466        1.59692       -0.31500
C         -3.71458        1.38388        0.85052
H         -3.68948        2.09159        1.67202
C         -4.49391        0.23672        0.96345
H         -5.06482        0.05969        1.86952
C         -4.55191       -0.69175       -0.07182
C         -3.82010       -0.46152       -1.23969
C         -3.03050        0.67448       -1.36221
H         -2.44614        0.84756       -2.26065
Cl        -3.85148       -1.59792       -2.55454
Cl        -5.52732       -2.11872        0.11775
