60
id_532_cb.log	Energy: -1741366.8294803
C          0.07915       -1.84524       -0.48023
H         -0.71867       -1.67025       -1.19581
C          1.40760       -1.96393       -0.87877
H          1.66713       -1.88388       -1.93027
C          2.39660       -2.20046        0.07817
C          2.08405       -2.30293        1.43254
H          2.86396       -2.48919        2.16337
C          0.75643       -2.18198        1.84095
H          0.47310       -2.26518        2.88502
C         -0.21027       -1.96410        0.87174
F         -1.50146       -1.86300        1.26059
S          4.09344       -2.36680       -0.47724
O          4.81030       -3.14098        0.56082
O          4.02723       -3.03200       -1.79698
N          4.65026       -0.89135       -0.74518
C          4.74405       -0.04904        0.32430
O          4.66727       -0.37376        1.52772
N          4.97525        1.28091       -0.02312
C          4.69190        2.25927        1.03199
H          5.13522        3.21066        0.72288
H          5.16922        1.95013        1.96060
C          3.18247        2.41189        1.23315
H          2.79310        1.46771        1.62987
H          2.97800        3.19888        1.96800
C          2.50581        2.76159       -0.09398
H          2.76731        3.79128       -0.36185
C          2.90998        1.82947       -1.23496
H          2.50621        2.18314       -2.18924
H          2.53613        0.81370       -1.05877
C          4.43702        1.74838       -1.30691
H          4.86927        2.73415       -1.50568
H          4.74389        1.07708       -2.10561
N          0.99978        2.79124        0.11175
H          0.85266        3.25459        1.02010
C          0.27691        3.61935       -0.91425
H          0.40978        3.11878       -1.87627
H          0.76452        4.59464       -0.94344
C         -1.19569        3.75187       -0.54835
H         -1.29641        4.30582        0.39322
H         -1.69400        4.32471       -1.33556
C         -1.84491        2.38421       -0.39379
H         -1.83873        1.87064       -1.36422
C         -1.08279        1.56870        0.64510
H         -1.14516        2.07325        1.61756
H         -1.49907        0.56493        0.76273
C          0.36506        1.43070        0.20914
H          0.94297        0.82696        0.91105
H          0.42648        0.98427       -0.78590
O         -3.19613        2.61447        0.01342
C         -4.07373        1.56908        0.02457
C         -5.31234        1.82161        0.62483
H         -5.50598        2.80135        1.04961
C         -6.27512        0.82706        0.67577
H         -7.23501        1.02141        1.14355
C         -6.01909       -0.43327        0.13383
C         -4.78719       -0.67672       -0.46681
C         -3.80950        0.31634       -0.52994
H         -2.86568        0.08354       -1.00933
Cl        -4.41987       -2.22993       -1.15873
Cl        -7.24407       -1.66451        0.23005
