49
id_553_cb.log	Energy: -752698.7336669
C         -0.93585        3.27348        2.42674
H         -0.14337        4.00394        2.23224
H         -0.59633        2.59596        3.21342
H         -1.80042        3.83274        2.79976
C         -1.28248        2.50543        1.18169
C         -1.16561        1.12552        1.11098
H         -0.80976        0.58967        1.98859
C         -1.48749        0.40851       -0.05131
C         -1.93602        1.11081       -1.16061
H         -2.18569        0.58140       -2.07281
C         -2.06542        2.50326       -1.12218
H         -2.41410        3.02840       -2.00362
C         -1.74096        3.19413        0.04026
O         -1.83000        4.55013        0.17520
C         -2.28214        5.28751       -0.95156
H         -3.29641        4.98847       -1.23610
H         -1.60843        5.15421       -1.80449
H         -2.28207        6.33369       -0.64617
C         -1.36015       -1.11165       -0.04415
N         -2.36767       -1.62541        0.90775
C         -3.13278       -2.39424        0.23146
C         -2.66735       -2.44058       -1.18737
N         -1.63367       -1.69190       -1.35965
N         -3.32625       -3.14580       -2.14166
H         -2.83659       -3.29775       -3.01546
H         -3.88989       -3.92772       -1.83076
C         -4.31688       -3.13533        0.74624
H         -5.21432       -2.83881        0.19280
H         -4.46598       -2.93835        1.80843
H         -4.18045       -4.21199        0.59562
C          0.04033       -1.56008        0.38595
C          0.23151       -2.75141        1.08812
H         -0.62393       -3.34544        1.39282
C          1.51859       -3.18005        1.40515
H          1.65702       -4.10057        1.96346
C          2.62609       -2.42904        1.02630
H          3.62448       -2.75335        1.30533
C          2.45029       -1.23937        0.31036
C          1.15437       -0.81937       -0.00686
H          1.01413        0.09134       -0.58295
C          3.61382       -0.42402       -0.09858
C          4.82622       -0.99205       -0.49172
H          4.94340       -2.07280       -0.52628
N          5.88393       -0.26434       -0.85792
C          5.71831        1.05842       -0.83635
H          6.57163        1.65940       -1.13601
N          4.61601        1.72150       -0.48527
C          3.57572        0.97119       -0.11545
H          2.67799        1.50177        0.19512
