31
id_571_ca.log	Energy: -2220106.0355543
C         -4.23911        2.63722        0.66870
H         -4.36970        3.66779        0.98330
C         -5.29389        1.94313        0.07555
H         -6.25211        2.42688       -0.08522
C         -5.12208        0.61716       -0.31094
H         -5.93749        0.06921       -0.77187
C         -3.89137       -0.00320       -0.11776
C         -2.82519        0.68130        0.47387
C         -3.01956        2.00462        0.88124
H         -2.20199        2.52560        1.36875
N         -1.59368        0.03411        0.71156
H         -1.61681       -0.92949        1.03079
C         -0.39104        0.55241        0.31095
O         -0.28102        1.63400       -0.26373
N          0.67788       -0.26040        0.61953
H          0.49955       -1.07380        1.20233
C          2.01127       -0.05302        0.28536
C          2.47817        0.91681       -0.60913
H          1.78066        1.58041       -1.09846
C          3.83774        1.03229       -0.87543
H          4.19726        1.78417       -1.56730
C          4.72037        0.16683       -0.24518
C          4.29290       -0.82163        0.64166
H          4.99577       -1.49253        1.12375
C          2.94106       -0.92576        0.90072
O          2.41310       -1.85404        1.75075
H          3.11601       -2.40003        2.14362
N          6.14132        0.28454       -0.51592
O          6.52108        1.15746       -1.28736
O          6.90906       -0.49375        0.03783
Br        -3.66524       -1.78869       -0.69753
