69
id_511_ca.log	Energy: -1446264.9331983
C         -7.94134        1.78191        0.42378
H         -7.11592        1.78953        1.14418
H         -8.82609        2.18705        0.92041
H         -7.66682        2.46555       -0.38756
C         -8.21882        0.39652       -0.10225
C         -9.50043       -0.14957        0.00316
H        -10.28215        0.43689        0.47894
C         -9.79185       -1.42095       -0.48730
H        -10.79687       -1.82031       -0.39125
C         -8.79347       -2.17101       -1.10144
H         -9.00830       -3.16088       -1.49159
C         -7.51161       -1.63843       -1.21739
H         -6.72568       -2.21419       -1.70160
C         -7.21389       -0.36538       -0.72523
C         -5.79650        0.15254       -0.83316
H         -5.77693        1.24211       -0.94064
H         -5.31116       -0.28730       -1.70863
C         -5.01359       -0.22802        0.42894
C         -4.79839       -1.73792        0.46629
O         -4.18987       -2.35131       -0.38197
O         -5.39750       -2.29575        1.51285
H         -5.27820       -3.26611        1.46586
N         -3.69198        0.48677        0.52652
C         -2.77580        0.36390       -0.66623
H         -2.48798       -0.68628       -0.73250
H         -3.34843        0.64312       -1.55029
C         -1.56872        1.27051       -0.48275
H         -0.92915        1.14002       -1.36016
H         -1.89551        2.31930       -0.46941
C         -0.80393        0.95421        0.80231
H         -0.43621       -0.07880        0.74017
C         -1.76495        1.02711        1.99155
H         -2.11399        2.05954        2.12639
H         -1.26454        0.72611        2.91726
C         -2.96533        0.11822        1.79519
H         -3.68599        0.20219        2.61052
H         -2.66102       -0.92698        1.68256
C          0.36515        1.90822        1.03594
H          0.91040        1.57677        1.94089
H         -0.04021        2.90425        1.25657
N          1.28234        2.05091       -0.09394
C          2.31373        3.02765        0.26844
H          1.82150        3.97172        0.52271
H          2.86112        2.69443        1.16962
C          3.29842        3.25442       -0.87236
H          4.06745        3.97008       -0.56603
H          2.77258        3.67342       -1.73660
C          3.95405        1.95168       -1.30745
H          4.58297        2.12503       -2.18691
C          2.88615        0.89734       -1.58257
H          2.33922        1.19799       -2.48319
H          3.34103       -0.07752       -1.78461
C          1.91562        0.76851       -0.41288
H          2.44658        0.36730        0.47168
H          1.14148        0.04475       -0.68100
O          4.79340        1.54756       -0.20895
C          5.72006        0.57527       -0.40036
C          6.03677       -0.00337       -1.63249
H          5.52666        0.28385       -2.54353
C          7.03052       -0.97457       -1.69716
H          7.27842       -1.42619       -2.65177
C          7.71311       -1.37975       -0.55707
C          7.39002       -0.79740        0.67103
C          6.40123        0.16998        0.75193
H          6.15009        0.62323        1.70445
Cl         8.21404       -1.26701        2.12959
Cl         8.94694       -2.59973       -0.68702
H         -5.56430        0.07208        1.32310
H         -3.93882        1.48546        0.60160
