46
id_598_ca.log	Energy: -555331.1645720
C         -0.93412        2.78288        0.41804
H         -0.47313        1.86281        0.79317
H         -0.55005        3.61927        1.01208
H         -0.59999        2.92375       -0.61762
C         -2.45717        2.70745        0.48630
H         -2.88964        3.67107        0.18948
H         -2.77659        2.53273        1.52109
C         -3.03504        1.63767       -0.43905
H         -2.70921        1.86429       -1.46169
H         -4.14128        1.69267       -0.43974
N         -2.59185        0.28084       -0.11956
C         -3.29799       -0.26894        1.03690
H         -3.44408        0.53873        1.76287
H         -4.30724       -0.61986        0.74640
C         -2.52962       -1.39459        1.72907
H         -3.15176       -1.76760        2.55227
H         -2.38964       -2.23886        1.04144
C         -1.17480       -0.94171        2.26840
H         -1.29363       -0.09365        2.95481
H         -0.51205       -0.62338        1.45636
H         -0.67622       -1.74999        2.81467
C         -2.69097       -0.59609       -1.28519
H         -2.82880       -1.62651       -0.94233
H         -3.58090       -0.34584       -1.89074
C         -1.43448       -0.54545       -2.16316
H         -1.61099       -1.16783       -3.04937
H         -1.26512        0.47898       -2.51528
C         -0.21592       -1.03393       -1.41485
C         -0.13041       -2.36331       -0.99558
H         -0.92031       -3.06589       -1.25181
C          0.95567       -2.80357       -0.24088
H          1.02852       -3.83739        0.08839
C          1.96570       -1.91464        0.10282
C          1.90656       -0.57385       -0.31281
C          0.81408       -0.14988       -1.07592
H          0.75868        0.88056       -1.40136
N          2.98922        0.24049        0.07889
H          3.74319       -0.25287        0.54612
C          3.13543        1.58369       -0.04913
O          2.28173        2.31392       -0.56610
C          4.42521        2.15300        0.48090
H          4.18509        2.92737        1.21471
H          4.95778        2.62871       -0.34777
H          5.07126        1.40411        0.94196
O          3.06399       -2.28030        0.84449
H          3.01617       -3.22596        1.06420
