60
id_525_cb.log	Energy: -1679068.3821936
C         -2.08127       -2.65287       -1.74693
H         -3.08803       -2.64449       -2.15387
C         -1.33412       -3.83155       -1.75723
H         -1.75916       -4.74128       -2.16839
C         -0.03806       -3.84120       -1.25250
H          0.55840       -4.74766       -1.27011
C          0.51174       -2.66837       -0.72829
C         -0.24838       -1.49579       -0.69209
H          0.14607       -0.59267       -0.23797
C         -1.53710       -1.48475       -1.21474
H         -2.11136       -0.56244       -1.20510
C          1.91482       -2.71853       -0.22461
O          2.48329       -3.75337        0.08142
N          2.53887       -1.48230       -0.12177
H          2.17311       -0.71347       -0.67992
S          4.15408       -1.31994        0.36741
O          4.24834       -1.99875        1.64714
O          5.01989       -1.73880       -0.72407
N          4.35553        0.27577        0.59748
C          3.60080        0.93324        1.68589
H          4.26404        1.71468        2.07136
H          3.43750        0.21235        2.48813
C          2.29050        1.54251        1.19669
H          1.59366        0.73899        0.93600
H          1.84591        2.09014        2.03369
C          2.51056        2.48508       -0.00251
H          3.10947        3.33128        0.36285
C          3.33827        1.80407       -1.10057
H          2.75257        1.04021       -1.62413
H          3.62040        2.54575       -1.85455
C          4.61373        1.17294       -0.54872
H          5.28164        1.94892       -0.16090
H          5.15520        0.61935       -1.31572
N          1.27744        3.07438       -0.55923
C          0.30343        2.06404       -0.98909
H          0.77873        1.36297       -1.67986
H         -0.07209        1.47695       -0.13388
C         -0.89250        2.71131       -1.67578
H         -1.57623        1.93405       -2.03178
H         -0.56565        3.28656       -2.54840
C         -1.58824        3.66554       -0.71168
H         -2.43734        4.17141       -1.18365
C         -0.57604        4.67934       -0.19240
H         -1.04268        5.31642        0.56550
H         -0.27426        5.31632       -1.03028
C          0.64566        3.98318        0.40581
H          0.33151        3.45079        1.31803
H          1.38442        4.73300        0.70685
O         -2.05164        2.96126        0.46372
C         -2.86682        1.88135        0.31560
C         -3.84075        1.76842       -0.67993
H         -3.97235        2.55019       -1.41993
C         -4.65068        0.63935       -0.71978
H         -5.40880        0.54338       -1.48962
C         -4.50240       -0.37798        0.21847
C         -3.52581       -0.25859        1.20885
C         -2.70838        0.86271        1.25745
H         -1.93801        0.95338        2.01620
Cl        -3.27129       -1.52473        2.37210
Cl        -5.52211       -1.78318        0.11839
