27
id_580_ca.log	Energy: -372956.6892325
C         -1.24341        1.37660       -0.03675
H         -1.39120        2.45487       -0.06572
C          0.05442        0.84631       -0.01728
C          0.22054       -0.54278        0.02075
C         -0.90778       -1.37441        0.03519
H         -0.79219       -2.45560        0.06266
C         -2.18564       -0.84145        0.01639
C         -2.35453        0.54924       -0.01940
O         -3.65434        0.99648       -0.03332
O         -3.27398       -1.68081        0.03306
H         -4.08929       -1.14916        0.01397
C          1.59409       -1.17930        0.08185
H          1.62117       -2.07787       -0.54416
H          1.80106       -1.49763        1.11366
C          2.67894       -0.20542       -0.35119
C          2.54129        1.12641        0.36589
H          2.53494        0.94691        1.44924
H          3.39179        1.77603        0.13373
C          1.23796        1.79039       -0.07394
H          1.35425        2.15706       -1.10251
H          1.03977        2.66827        0.54892
N          4.01695       -0.80860       -0.04711
H          4.77943       -0.19704       -0.36085
H          4.13043       -1.71814       -0.50997
H          4.13005       -0.95721        0.96361
H          2.65928       -0.05719       -1.43481
H         -3.67686        1.96806       -0.06496
