60
id_527_cb.log	Energy: -1679073.7414947
C          0.49874        3.68202       -0.39777
H          1.52344        4.03189       -0.47990
C          0.22520        2.45932        0.21556
H          1.03438        1.85863        0.62298
C         -1.08894        2.01079        0.31300
H         -1.31472        1.06953        0.80188
C         -2.13926        2.77881       -0.19622
C         -1.86132        4.01127       -0.79085
H         -2.68065        4.61050       -1.17548
C         -0.54665        4.45803       -0.89779
H         -0.33682        5.41176       -1.37208
C         -3.56811        2.30768       -0.11513
O         -4.49006        3.13927       -0.20196
N         -3.68461        0.97028        0.03338
S         -5.19204        0.39710        0.17153
O         -6.00953        0.62940       -1.03092
O         -5.81051        0.78259        1.45163
N         -5.00877       -1.26428        0.25721
C         -4.26838       -1.78512        1.41653
H         -4.63960       -2.80254        1.58329
H         -4.52766       -1.19266        2.29474
C         -2.74732       -1.81989        1.22569
H         -2.30438       -2.31474        2.09540
H         -2.37621       -0.79448        1.17362
C         -2.41740       -2.57058       -0.05989
H         -2.71149       -3.62119        0.04449
C         -3.14386       -1.97583       -1.26261
H         -2.80881       -0.95362       -1.45385
H         -2.95003       -2.58060       -2.15521
C         -4.64839       -1.95983       -0.98687
H         -5.18824       -1.50271       -1.81566
H         -5.01364       -2.98722       -0.87781
N         -0.92463       -2.62822       -0.33253
H         -0.83206       -3.03649       -1.27392
C         -0.19315       -3.54520        0.60910
H         -0.26013       -3.09531        1.60219
H         -0.72114       -4.49931        0.60686
C          1.25537       -3.70866        0.17164
H          1.76118       -4.35797        0.89095
H          1.29786       -4.18984       -0.81257
C          1.95049       -2.35655        0.09719
H          1.98721       -1.91835        1.10315
C          1.18657       -1.44136       -0.85486
H          1.63138       -0.44402       -0.91094
H          1.20716       -1.87642       -1.86117
C         -0.24589       -1.28667       -0.37302
H         -0.26889       -0.89588        0.64673
H         -0.81980       -0.63157       -1.02790
O          3.27697       -2.60310       -0.36748
C          4.21322       -1.62026       -0.25324
C          5.46313       -1.90767       -0.81243
H          5.61459       -2.86441       -1.30003
C          6.48756       -0.98067       -0.73873
H          7.45707       -1.20339       -1.17119
C          6.28411        0.24909       -0.11257
C          5.03917        0.52995        0.44143
C          3.99940       -0.39643        0.38035
H          3.04860       -0.13681        0.82948
Cl         4.73105        2.05336        1.22341
Cl         7.58951        1.39608       -0.04577
