68
id_537_ca.log	Energy: -1763139.9031991
C         -2.16851       -2.27482       -1.35737
H         -2.07713       -1.43258       -2.05668
H         -3.22064       -2.40474       -1.10302
H         -1.82917       -3.18266       -1.86722
N         -1.41672       -2.06801       -0.12943
C         -2.12153       -1.70707        1.09280
H         -3.19093       -1.66922        0.88528
H         -1.79897       -0.72413        1.45882
H         -1.95235       -2.44581        1.88522
C         -0.05744       -2.04918       -0.14735
C          0.68131       -1.92651        1.06128
H          0.16782       -1.82141        2.00911
C          2.06163       -1.98804        1.06167
H          2.60181       -1.93908        2.00115
C          2.75281       -2.12966       -0.14830
C          2.05386       -2.20559       -1.35894
H          2.59054       -2.30469       -2.29765
C          0.67018       -2.17608       -1.36077
H          0.14847       -2.24632       -2.30804
S          4.50098       -2.25665       -0.15403
O          4.94183       -2.73271       -1.46610
O          4.94711       -2.96090        1.04287
N          5.14673       -0.69466       -0.09859
H          5.22713       -0.31975       -1.04153
C          4.77903        0.17799        0.94185
O          4.45989       -0.28344        2.03818
N          4.85176        1.51152        0.67921
C          4.78394        2.03026       -0.69703
H          5.12170        3.06968       -0.64958
H          5.49189        1.51647       -1.34982
C          3.34880        1.96196       -1.21119
H          3.04450        0.90738       -1.27763
H          3.30238        2.38518       -2.22008
C          2.41020        2.74219       -0.28146
H          2.71466        3.79693       -0.34157
C          2.58865        2.29994        1.18213
H          1.99741        2.93765        1.84919
H          2.23813        1.26631        1.31230
C          4.06121        2.35939        1.59194
H          4.45278        3.37701        1.50546
H          4.20971        2.02278        2.61663
N          1.02834        2.69737       -0.78241
C          0.36102        1.40988       -0.57297
H          1.02357        0.59589       -0.88199
H          0.12610        1.24915        0.49580
C         -0.93046        1.34614       -1.38155
H         -1.43012        0.39064       -1.18701
H         -0.70181        1.38948       -2.45321
C         -1.86803        2.50432       -1.03891
H         -2.68943        2.57521       -1.75943
C         -1.12666        3.83504       -1.00211
H         -1.78106        4.60145       -0.57342
H         -0.91189        4.12227       -2.03769
C          0.18445        3.75666       -0.22588
H         -0.02410        3.58536        0.84539
H          0.71400        4.71100       -0.30835
O         -2.43572        2.30820        0.27355
C         -3.46849        1.43736        0.42124
C         -3.96224        1.29062        1.72458
H         -3.50146        1.85265        2.53075
C         -5.02106        0.43546        1.97749
H         -5.40022        0.32122        2.98811
C         -5.61225       -0.28577        0.93781
C         -5.12202       -0.13397       -0.35532
C         -4.04800        0.71574       -0.62459
H         -3.68917        0.78604       -1.64438
Cl        -5.82268       -1.01002       -1.68573
Cl        -6.93896       -1.35429        1.29019
