47
id_501_ca.log	Energy: -899381.5998671
C          7.92823       -1.94421       -0.12339
H          8.06305       -3.02053       -0.13872
C          9.03454       -1.10349       -0.18451
H         10.03645       -1.51357       -0.24728
C          8.85296        0.28000       -0.16546
H          9.68403        0.97531       -0.21198
C          7.56939        0.77480       -0.08565
C          6.44150       -0.04844       -0.02173
C          6.63357       -1.43013       -0.04161
H          5.78054       -2.09355        0.00573
N          5.20296        0.60213        0.05595
H          5.21433        1.61710        0.03858
C          3.98748        0.02936        0.08996
N          3.63567       -1.23102        0.12203
N          2.25349       -1.22350        0.14635
C          1.87963        0.00538        0.13134
O          2.92776        0.86877        0.09552
C          0.50785        0.57081        0.12700
O          0.33352        1.77949        0.08193
N         -0.45096       -0.38762        0.16995
H         -0.12380       -1.35049        0.21053
C         -1.83968       -0.21210        0.12755
C         -2.62671       -1.37255        0.17604
H         -2.14684       -2.34259        0.25233
C         -4.00764       -1.28920        0.12171
H         -4.60934       -2.19172        0.15661
C         -4.61507       -0.04341        0.01870
C         -3.82451        1.09373       -0.02038
C         -2.44414        1.04451        0.03219
H         -1.87878        1.96394       -0.00467
F         -4.43219        2.28552       -0.11520
N         -6.06649        0.10759       -0.05629
C         -6.66275       -0.54716       -1.28103
H         -6.16780       -0.11941       -2.15354
H         -6.44697       -1.61431       -1.20415
C         -8.15794       -0.28797       -1.29310
H         -8.59919       -0.80685       -2.14544
H         -8.35404        0.78955       -1.39028
O         -8.77169       -0.79158       -0.11956
C         -8.26446       -0.13438        1.02860
H         -8.46224        0.94538        0.96513
H         -8.78350       -0.54028        1.89821
C         -6.77519       -0.38339        1.18513
H         -6.55864       -1.45005        1.26730
H         -6.35846        0.15811        2.03504
F          7.35776        2.10738       -0.06894
H         -6.26084        1.11845       -0.13325
