62
id_523_cb.log	Energy: -1396693.3540338
C          8.77154        2.62797        0.67720
H          9.49081        3.37660        0.99684
C          8.18451        1.77349        1.61362
H          8.44830        1.85521        2.66445
C          7.26150        0.81202        1.20599
H          6.81410        0.14919        1.94160
C          6.90697        0.69481       -0.14380
C          7.49952        1.55263       -1.07388
H          7.22672        1.47043       -2.12365
C          8.42789        2.51392       -0.66901
H          8.87717        3.17438       -1.40542
C          5.91857       -0.36044       -0.60956
C          6.60148       -1.73962       -0.42307
O          7.26618       -2.15777       -1.41228
O          6.50243       -2.32130        0.68819
N          4.62282       -0.26970        0.07095
C          4.03361        1.05776       -0.14916
H          4.71004        1.81708        0.25159
H          3.92675        1.25029       -1.23493
C          2.67478        1.18467        0.52736
H          2.27198        2.18653        0.33890
H          2.80021        1.07781        1.61326
C          1.70106        0.11651        0.02064
H          1.52206        0.31007       -1.04572
C          2.34873       -1.26136        0.17000
H          1.73702       -2.04372       -0.29808
H          2.44194       -1.50804        1.23699
C          3.72306       -1.28731       -0.48770
H          3.60612       -1.12619       -1.57725
H          4.17495       -2.27294       -0.34858
C          0.39615        0.25025        0.79356
H          0.58612        0.18408        1.86928
H         -0.09941        1.20175        0.57856
N         -0.61162       -0.82213        0.49319
H         -0.19014       -1.73123        0.73234
C         -1.00062       -0.86821       -0.95560
H         -0.09445       -1.02530       -1.54060
H         -1.41451        0.11650       -1.19032
C         -1.99378       -1.99303       -1.20490
H         -1.51451       -2.95736       -1.00106
H         -2.27651       -1.97774       -2.26117
C         -3.23124       -1.87774       -0.32732
H         -3.87888       -2.74348       -0.49521
C         -2.82209       -1.77466        1.14027
H         -2.38329       -2.73174        1.44517
H         -3.68714       -1.59150        1.78460
C         -1.82521       -0.64931        1.36259
H         -2.24697        0.32592        1.10358
H         -1.47647       -0.62474        2.39609
O         -3.90809       -0.68464       -0.75431
C         -5.19178       -0.45887       -0.36110
C         -5.99122       -1.37380        0.32879
H         -5.62135       -2.34825        0.62430
C         -7.30310       -1.03046        0.64580
H         -7.92811       -1.73840        1.18081
C         -7.82734        0.20594        0.28778
C         -7.01897        1.11492       -0.40043
C         -5.70932        0.78919       -0.72091
H         -5.08110        1.49419       -1.25582
Cl        -7.62659        2.67441       -0.87328
Cl        -9.47266        0.58990        0.70330
H          5.77510       -0.22578       -1.69582
