58
id_563_cb.log	Energy: -1452458.5906067
C          1.06622        1.59090        2.48362
H          1.18240        1.34857        3.53671
C          2.20560        1.71099        1.66488
H          3.19913        1.56180        2.07981
C          2.04507        2.02621        0.33038
H          2.90815        2.13527       -0.31955
C          0.76091        2.20671       -0.22162
C         -0.39258        2.07656        0.59305
C         -0.20205        1.77504        1.96726
H         -1.06354        1.67345        2.61574
C         -1.67471        2.18122       -0.06313
C         -1.67412        2.45303       -1.41805
H         -2.62591        2.56834       -1.93504
N         -0.59876        2.63328       -2.20607
C          0.63275        2.50060       -1.65758
O          1.66787        2.63296       -2.37594
C         -2.94421        1.89044        0.64442
O         -3.12599        2.16325        1.84475
N         -3.89928        1.24512       -0.07822
H         -3.72495        1.06319       -1.06103
C         -5.17768        0.81713        0.46493
H         -5.99535        1.34349       -0.03865
H         -5.20188        1.07479        1.52437
C         -5.40250       -0.68186        0.29982
C         -4.38564       -1.57333        1.02283
H         -4.76709       -2.59363        1.09941
H         -4.18225       -1.19782        2.02811
N         -3.08508       -1.64137        0.26613
H         -3.15041       -0.96926       -0.51104
C         -2.84310       -2.98264       -0.36881
H         -3.73829       -3.23522       -0.93892
H         -2.72653       -3.69419        0.45358
C         -1.61705       -2.91690       -1.26753
H         -1.80984       -2.22006       -2.09308
H         -1.44599       -3.90862       -1.69580
C         -0.38419       -2.44271       -0.50774
H         -0.06990       -3.21281        0.20848
C         -0.67882       -1.12866        0.20412
H         -0.85198       -0.35420       -0.55659
H          0.16025       -0.80076        0.82445
C         -1.89931       -1.25312        1.09570
H         -2.13349       -0.31276        1.59685
H         -1.78469       -2.03190        1.85633
O          0.63715       -2.25612       -1.50154
C          1.82293       -1.68938       -1.11611
C          2.47288       -0.88894       -2.05793
H          2.01350       -0.72480       -3.02766
C          3.68892       -0.29909       -1.74196
H          4.19041        0.33643       -2.46520
C          4.25897       -0.49014       -0.48446
C          3.60613       -1.29458        0.44833
C          2.39323       -1.90428        0.13856
H          1.90526       -2.52642        0.88143
Cl         4.27431       -1.55082        2.03365
Cl         5.75128        0.31417       -0.09688
O         -5.38212       -0.95112       -1.09813
H         -5.69466       -1.85822       -1.25512
H         -6.38668       -0.91174        0.72349
