65
id_568_cb.log	Energy: -1096586.0123893
C         -3.23197        2.90587       -0.74815
H         -4.19469        3.06700       -1.22544
C         -2.26064        3.89910       -0.82288
H         -2.46377        4.83275       -1.33630
C         -1.01503        3.68729       -0.24150
C         -0.73482        2.49879        0.43484
C         -1.73960        1.53391        0.52734
H         -1.52205        0.61103        1.05826
C         -2.98549        1.71182       -0.06955
C         -4.05065        0.64210        0.03106
H         -4.61767        0.78758        0.95919
H         -4.76646        0.76101       -0.80250
N         -3.48515       -0.69898        0.06191
C         -2.88061       -1.04170       -1.22824
H         -2.06366       -0.34575       -1.44606
H         -3.62812       -0.95228       -2.03902
C         -2.33992       -2.46756       -1.22196
C         -1.20158       -2.70819       -0.22835
H         -0.80094       -3.71249       -0.41374
H         -0.39723       -1.98918       -0.41432
N         -1.59892       -2.61962        1.18361
H         -1.84107       -1.64223        1.34111
C         -2.83880       -3.37939        1.39704
H         -3.21684       -3.17008        2.40205
H         -2.59921       -4.44824        1.34714
C         -3.93284       -3.10609        0.36325
C         -4.50899       -1.69179        0.39186
H         -4.91082       -1.47543        1.38781
H         -5.34601       -1.64486       -0.32975
O         -3.41227       -3.37744       -0.94495
C          0.57051        2.13368        1.08899
O          0.58005        1.71406        2.25091
N          1.66822        2.21729        0.32018
H          1.55253        2.48305       -0.65073
C          2.95539        1.67782        0.73625
H          3.73987        2.34087        0.35595
H          2.98382        1.71091        1.82865
C          3.21361        0.24825        0.24619
C          2.13107       -0.72837        0.74307
H          1.14753       -0.41847        0.35933
H          2.08052       -0.69552        1.83999
C          2.44667       -2.15600        0.26965
H          1.66781       -2.83827        0.63174
C          2.49100       -2.18850       -1.26545
H          2.70113       -3.20880       -1.61193
H          1.51568       -1.89622       -1.67747
C          3.57902       -1.22844       -1.77017
H          3.60793       -1.24619       -2.86593
C          3.25942        0.19615       -1.29196
H          4.02247        0.89764       -1.65773
H          2.29270        0.51639       -1.70473
C          4.94222       -1.66074       -1.20934
H          5.18559       -2.67318       -1.55675
H          5.72862       -0.98870       -1.57700
C          4.90129       -1.62950        0.32582
H          5.87475       -1.93346        0.72797
C          3.81123       -2.58850        0.82774
H          4.03839       -3.61365        0.50772
H          3.78513       -2.58441        1.92522
C          4.57825       -0.20400        0.79619
H          4.55966       -0.16424        1.89417
H          5.35813        0.49138        0.45557
Cl         0.16986        4.97332       -0.34666
H         -1.99195       -2.70942       -2.23110
H         -4.75305       -3.81480        0.51396
