61
id_525_ca.log	Energy: -1679360.1931604
C         -2.10521       -2.67632       -1.75557
H         -3.10793       -2.66433       -2.17204
C         -1.37080       -3.86291       -1.73972
H         -1.80231       -4.77460       -2.13957
C         -0.07889       -3.87839       -1.22450
H          0.50829       -4.79105       -1.22331
C          0.47905       -2.70283       -0.71549
C         -0.26960       -1.52222       -0.70412
H          0.13229       -0.61884       -0.25791
C         -1.55354       -1.50521       -1.23763
H         -2.11801       -0.57672       -1.24642
C          1.87945       -2.75675       -0.20521
O          2.43927       -3.78801        0.12347
N          2.51181       -1.51950       -0.12794
H          2.15592       -0.77343       -0.72246
S          4.12924       -1.35074        0.34275
O          4.24291       -2.02943        1.61960
O          4.99051       -1.74824       -0.75899
N          4.31431        0.25032        0.57827
C          3.56352        0.89319        1.67302
H          4.22395        1.66546        2.07950
H          3.37948        0.16247        2.46083
C          2.25303        1.51620        1.19233
H          1.56236        0.72067        0.89826
H          1.80867        2.04939        2.03689
C          2.52842        2.46778        0.02844
H          3.10587        3.32169        0.39911
C          3.31853        1.80585       -1.10182
H          2.71902        1.05179       -1.62103
H          3.60320        2.55846       -1.84431
C          4.58878        1.15609       -0.55334
H          5.26519        1.92196       -0.16174
H          5.11590        0.60719       -1.33272
N          1.25145        3.08634       -0.51584
C          0.24703        2.08740       -1.02572
H          0.74630        1.43237       -1.73829
H         -0.07977        1.50683       -0.16104
C         -0.93330        2.79623       -1.66760
H         -1.61478        2.03365       -2.05490
H         -0.60264        3.40200       -2.51812
C         -1.61622        3.70607       -0.65164
H         -2.47550        4.22012       -1.09234
C         -0.60342        4.71677       -0.12735
H         -1.05520        5.33963        0.64924
H         -0.29936        5.36988       -0.95148
C          0.61045        4.02270        0.47599
H          0.32165        3.41786        1.33630
H          1.37601        4.73929        0.77636
O         -2.03269        2.95911        0.50682
C         -2.84695        1.87507        0.34812
C         -3.84633        1.78581       -0.62272
H         -4.00562        2.58812       -1.33487
C         -4.64970        0.65208       -0.67157
H         -5.42937        0.57307       -1.42153
C         -4.46760       -0.39015        0.23254
C         -3.46277       -0.29335        1.19698
C         -2.65177        0.83220        1.25459
H         -1.86088        0.90752        1.99374
Cl        -3.16293       -1.59195        2.31112
Cl        -5.47907       -1.79958        0.12106
H          1.53753        3.65808       -1.32397
