61
id_588_ca.log	Energy: -757368.7618585
C          8.94045       -1.21841       -0.06116
H          9.22276       -2.12699       -0.60047
H          9.64374       -0.42446       -0.32752
H          9.03651       -1.41556        1.02065
N          7.58719       -0.82497       -0.42870
C          7.21375        0.37832        0.30990
H          7.30084        0.20950        1.39928
H          7.89938        1.18878        0.04427
C          5.79445        0.81123       -0.01343
H          5.55806        1.69062        0.59046
H          5.72853        1.09992       -1.07562
N          4.84438       -0.25442        0.30122
C          5.22495       -1.49855       -0.38571
H          4.56768       -2.31058       -0.07563
H          5.11922       -1.37299       -1.47524
C          6.65425       -1.88467       -0.05485
H          6.91061       -2.79742       -0.60161
H          6.72889       -2.10782        1.02571
C          3.48165        0.08398        0.19806
C          3.04600        1.37404       -0.14902
H          3.75894        2.14992       -0.39935
C          1.69076        1.68068       -0.19880
H          1.38506        2.68423       -0.47584
C          0.71132        0.72259        0.07308
C          1.14624       -0.56389        0.42261
H          0.42515       -1.33322        0.68214
C          2.49421       -0.87650        0.48956
H          2.78327       -1.87366        0.80312
C         -0.73003        1.07409       -0.00070
C         -1.68429        0.05605       -0.24450
H         -1.34660       -0.96093       -0.39476
C         -3.03076        0.36607       -0.30798
C         -3.40951        1.74644       -0.14520
C         -4.74708        2.20486       -0.23148
H         -5.55418        1.51238       -0.45013
C         -5.04638        3.53662       -0.06423
H         -6.07528        3.87376       -0.13547
C         -4.01594        4.46790        0.19277
H         -4.25938        5.51748        0.32531
C         -2.71050        4.04971        0.26665
H         -1.90295        4.75045        0.45457
C         -2.36916        2.68275        0.09369
N         -1.04801        2.34597        0.17017
N         -3.99130       -0.58028       -0.56526
H         -4.91540       -0.34483       -0.22403
C         -3.64106       -1.99029       -0.53704
H         -2.90898       -2.18568       -1.32673
H         -3.16436       -2.27576        0.41040
C         -4.81416       -2.89477       -0.85328
H         -4.45886       -3.92478       -0.92872
H         -5.28930       -2.60726       -1.79336
N         -5.90609       -2.91777        0.18253
C         -6.94019       -3.92326       -0.20122
H         -6.47844       -4.91039       -0.16056
H         -7.28390       -3.70140       -1.21091
H         -7.76432       -3.85532        0.50782
C         -5.39874       -3.18246        1.55918
H         -4.79847       -4.09292        1.52930
H         -6.25836       -3.31250        2.21544
H         -4.80273       -2.33487        1.89337
H         -6.37176       -2.00257        0.19295
