42
id_596_ca.log	Energy: -886542.0627397
C         -6.70625        0.82165       -0.65249
H         -7.76498        0.70354       -0.90018
H         -6.15783        1.03949       -1.57243
H         -6.60302        1.66836        0.03159
C         -6.19298       -0.44753       -0.00552
H         -6.27051       -1.30591       -0.67516
H         -6.72766       -0.66748        0.91927
O         -4.81975       -0.30047        0.40864
C         -3.89416       -0.41959       -0.56123
O         -4.16952       -0.71745       -1.71859
N         -2.63750       -0.14991       -0.11815
C         -2.30905       -0.08905        1.30567
H         -3.17618        0.25926        1.86213
H         -2.06644       -1.09832        1.66854
C         -1.14837        0.87194        1.55123
H         -0.86022        0.83837        2.60560
H         -1.46973        1.89200        1.31621
C          0.06610        0.57507        0.67756
C         -0.36705        0.48719       -0.79268
H         -0.68189        1.49023       -1.10046
H          0.47925        0.18741       -1.41887
C         -1.51525       -0.49373       -0.99032
H         -1.18417       -1.51928       -0.77406
H         -1.85803       -0.46254       -2.02294
N          1.08222        1.59359        0.89833
H          0.73249        2.53946        0.76530
C          2.31339        1.36216        0.32366
C          3.11727        2.43135       -0.09804
H          2.74696        3.44421        0.02257
C          4.34174        2.18170       -0.68145
H          4.95498        3.00974       -1.02128
C          4.79347        0.87199       -0.88067
H          5.73224        0.67735       -1.38503
C          4.01779       -0.18006       -0.43799
C          2.78039        0.02900        0.20702
C          1.95049       -0.98965        0.85955
N          0.68646       -0.68344        1.11726
N          2.41946       -2.15490        1.26820
H          1.80861       -2.80818        1.74968
H          3.40561       -2.37549        1.23537
Cl         4.61204       -1.78464       -0.79943
H          0.13042       -1.34202        1.65887
