69
id_544_ca.log	Energy: -1763393.9846257
C         -0.52124       -1.10224        1.99981
H         -0.00858       -0.13676        2.00131
H          0.23042       -1.88258        2.18348
H         -1.25935       -1.11566        2.80536
N         -1.19222       -1.25822        0.70608
C         -0.19544       -1.29094       -0.37739
H          0.36547       -0.35144       -0.36667
H         -0.68982       -1.39738       -1.34337
H          0.50607       -2.12695       -0.23856
C         -2.08765       -2.37273        0.64085
C         -1.84961       -3.56140        1.33238
H         -0.94994       -3.65669        1.93104
C         -2.74472       -4.62576        1.25906
H         -2.52924       -5.53932        1.80376
C         -3.90422       -4.52592        0.49690
H         -4.60365       -5.35277        0.44339
C         -4.17290       -3.34755       -0.19052
H         -5.08300       -3.24093       -0.77057
C         -3.27245       -2.28767       -0.11441
S         -3.71274       -0.84511       -1.06311
O         -5.14473       -0.88950       -1.34109
O         -2.81087       -0.70572       -2.20897
N         -3.42253        0.35705        0.07483
H         -2.53182        0.11541        0.55094
C         -3.60672        1.68343       -0.36623
O         -4.15059        1.91639       -1.44165
N         -3.21081        2.65066        0.50866
C         -2.94003        3.97316       -0.06910
H         -3.64923        4.16500       -0.87138
H         -3.09526        4.71566        0.71859
C         -1.49971        4.02543       -0.58800
H         -1.28454        5.02213       -0.98696
H         -1.40212        3.29759       -1.40150
C         -0.54061        3.70003        0.55668
H         -0.61528        4.49348        1.30852
C         -0.86993        2.35959        1.21018
H         -0.72224        1.54135        0.49452
H         -0.23735        2.17458        2.08272
C         -2.33504        2.36502        1.64764
H         -2.50554        3.15396        2.38591
H         -2.61296        1.42221        2.12077
N          0.90262        3.75824        0.08853
H          0.99009        4.62327       -0.46480
C          1.29625        2.62016       -0.81383
H          0.57759        2.57571       -1.63177
H          1.22617        1.70921       -0.21712
C          2.71409        2.80491       -1.32503
H          2.79904        3.72641       -1.91083
H          2.94096        1.96973       -1.99281
C          3.69085        2.87691       -0.15367
H          4.72097        3.00237       -0.50050
C          3.29460        4.03124        0.75718
H          3.94750        4.06550        1.63332
H          3.41506        4.97012        0.20739
C          1.86023        3.88395        1.24494
H          1.54466        4.75284        1.82393
H          1.74459        2.98387        1.85025
O          3.59163        1.70215        0.66969
C          3.87075        0.47919        0.13807
C          4.69621        0.27281       -0.96822
H          5.15170        1.10555       -1.49179
C          4.94236       -1.02422       -1.40299
H          5.58155       -1.19322       -2.26279
C          4.38439       -2.11533       -0.74596
C          3.56471       -1.89966        0.36421
C          3.29822       -0.60927        0.80056
H          2.65691       -0.43666        1.65917
Cl         2.86130       -3.23553        1.22813
Cl         4.72270       -3.72054       -1.32299
