66
id_509_ca.log	Energy: -1479224.0311481
C          2.17091       -2.85453        0.73448
H          2.87560       -3.33337        1.41013
C          0.82839       -2.79669        1.07848
H          0.47379       -3.22750        2.00961
C         -0.07509       -2.16209        0.21340
C          0.35906       -1.62518       -1.00282
H         -0.35360       -1.15237       -1.67261
C          1.71156       -1.68561       -1.32727
H          2.05857       -1.24677       -2.25945
C          2.63307       -2.27222       -0.45375
C          4.11547       -2.22998       -0.73987
H          4.30520       -1.84195       -1.74544
H          4.52140       -3.24521       -0.70615
C          4.91494       -1.44430        0.30304
C          6.45141       -1.53833        0.09251
O          7.11981       -0.52077        0.41529
O          6.89616       -2.62992       -0.32904
N          4.56109        0.01578        0.41069
H          5.38223        0.41473        0.89719
C          4.49959        0.72709       -0.91070
H          5.40329        0.46305       -1.46445
H          3.63010        0.34020       -1.44548
C          4.40596        2.22957       -0.67686
H          5.32578        2.56474       -0.18080
H          4.36579        2.71991       -1.65551
C          3.18895        2.61484        0.17842
H          3.27719        3.67760        0.43388
C          3.23682        1.81305        1.48460
H          2.34757        1.99570        2.09648
H          4.10324        2.13976        2.07408
C          3.34504        0.31524        1.24330
H          2.47947       -0.06632        0.69984
H          3.45356       -0.24008        2.17746
C          1.89929        2.45433       -0.63775
H          1.79615        1.42329       -1.01450
H          2.01376        3.08860       -1.52446
N          0.66358        2.84732        0.06035
C         -0.17947        3.64929       -0.83894
H          0.38484        4.53733       -1.13837
H         -0.40667        3.08099       -1.75925
C         -1.47764        4.07865       -0.16649
H         -2.08851        4.65136       -0.87227
H         -1.25660        4.72769        0.68846
C         -2.26547        2.88140        0.34409
H         -3.15417        3.22105        0.88607
C         -1.37145        2.00657        1.21777
H         -1.14773        2.55968        2.13765
H         -1.88679        1.08318        1.50778
C         -0.08211        1.65341        0.48580
H         -0.32509        1.02895       -0.39473
H          0.55217        1.04726        1.13959
O         -2.67889        2.15988       -0.83574
C         -3.52007        1.09699       -0.72176
C         -3.54182        0.21234       -1.80647
H         -2.87581        0.38672       -2.64592
C         -4.41190       -0.86688       -1.80623
H         -4.43082       -1.55328       -2.64707
C         -5.26215       -1.08564       -0.72294
C         -5.22673       -0.20929        0.35824
C         -4.36282        0.88360        0.36971
H         -4.36004        1.54282        1.23003
Cl        -6.24813       -0.46048        1.74462
Cl        -6.32379       -2.46427       -0.74014
C         -1.45476       -2.06213        0.60261
N         -2.55827       -2.00332        0.95620
H          4.72343       -1.86015        1.29955
