46
id_501_cb.log	Energy: -899099.7959381
C         -7.95903       -1.83309       -0.31311
H         -8.12105       -2.89147       -0.48785
C         -9.04529       -0.98181       -0.14060
H        -10.05873       -1.36580       -0.17840
C         -8.82825        0.37846        0.08312
H         -9.64247        1.08103        0.22345
C         -7.53067        0.84028        0.12770
C         -6.42210        0.00582       -0.04291
C         -6.64992       -1.35220       -0.26771
H         -5.81254       -2.02324       -0.40432
N         -5.16551        0.62070        0.02347
H         -5.15067        1.62464        0.17442
C         -3.96442        0.01830       -0.03639
N         -3.64376       -1.24087       -0.18688
N         -2.25972       -1.26951       -0.17095
C         -1.85631       -0.05962       -0.01788
O         -2.88486        0.82381        0.07502
C         -0.47314        0.47516        0.06875
O         -0.28500        1.68029        0.18835
N          0.46677       -0.49065       -0.00051
H          0.12898       -1.44797       -0.06449
C          1.86593       -0.33721        0.05992
C          2.63732       -1.49662        0.14167
H          2.14765       -2.46567        0.16436
C          4.02523       -1.42385        0.18496
H          4.59002       -2.34699        0.23891
C          4.69612       -0.19582        0.16242
C          3.88048        0.94137        0.09824
C          2.50208        0.90813        0.03179
H          1.95598        1.83890       -0.02162
F          4.46929        2.15460        0.10790
N          6.09901       -0.04796        0.24444
C          6.83236       -1.27644        0.55034
H          6.42903       -1.72419        1.46301
H          6.74331       -2.01170       -0.26642
C          8.30126       -0.95032        0.75726
H          8.86608       -1.86656        0.94296
H          8.41750       -0.27740        1.61912
O          8.86002       -0.34624       -0.40037
C          8.16400        0.85274       -0.70922
H          8.28262        1.57201        0.11416
H          8.62303        1.26509       -1.61056
C          6.68997        0.58477       -0.94918
H          6.57674       -0.07737       -1.82256
H          6.18220        1.52617       -1.16024
F         -7.28599        2.14956        0.34433
