47
id_599_ca.log	Energy: -555612.3095000
C         -3.37546        1.36933       -1.46385
H         -2.37509        1.05017       -1.78237
H         -3.25842        2.11954       -0.67424
H         -3.84559        1.85314       -2.32395
C         -4.22820        0.19806       -0.98321
H         -4.30771       -0.56345       -1.76448
H         -5.24875        0.54182       -0.78583
C         -3.74542       -0.41445        0.32373
H         -4.32087       -1.30205        0.59814
H         -3.81874        0.31822        1.13170
N         -2.30537       -0.84853        0.28827
C         -2.06753       -2.01141       -0.63658
H         -2.41942       -2.89731       -0.10208
H         -2.69536       -1.85923       -1.51640
C         -0.60658       -2.12484       -1.05054
H          0.03853       -2.22926       -0.17197
H         -0.51954       -3.06128       -1.61079
C         -0.12470       -0.96402       -1.91827
H         -0.19405        0.00354       -1.40471
H         -0.70935       -0.89871       -2.84203
H          0.92692       -1.10544       -2.18699
C         -1.79323       -1.12326        1.67779
H         -2.61236       -1.58486        2.23288
H         -0.98137       -1.84607        1.58919
C         -1.28772        0.15631        2.34145
H         -2.11794        0.84228        2.53573
H         -0.87096       -0.13579        3.31061
C         -0.24626        0.83757        1.48366
C         -0.53134        2.03893        0.83671
H         -1.48795        2.52669        1.00438
C          0.40305        2.62947       -0.01508
H          0.18803        3.56987       -0.51485
C          1.62143        2.00628       -0.24037
C          1.91943        0.78316        0.38969
C          0.98944        0.21807        1.25670
H          1.22731       -0.71379        1.75680
N          3.17583        0.21256        0.10955
H          3.87378        0.84953       -0.25808
C          3.46064       -1.11731        0.04907
O          2.64396       -1.99615        0.32543
C          4.85925       -1.45519       -0.39825
H          4.80220       -1.91125       -1.39105
H          5.27436       -2.19650        0.28802
H          5.51731       -0.58593       -0.44055
O          2.58504        2.51923       -1.06210
H          2.28665        3.37675       -1.40941
H         -1.75779       -0.05383       -0.07501
