33
id_591_cb.log	Energy: -700968.0350884
C          0.47204        0.20000        2.46080
H          0.43332        0.86507        3.32934
H          0.92026       -0.74563        2.77432
H         -0.56017       -0.00245        2.14810
C          1.26295        0.80642        1.35268
C          2.25440        0.32279        0.53071
N          2.62135        1.27695       -0.40021
C          1.86104        2.31718       -0.14261
H          1.87400        3.26151       -0.66809
N          1.03694        2.08878        0.90842
H          0.33506        2.72426        1.26968
C          2.83486       -1.04670        0.51605
H          2.67087       -1.55076        1.47217
H          3.91231       -1.01072        0.33219
S          2.17257       -2.13126       -0.81612
C          0.40489       -2.12451       -0.37326
H         -0.00471       -3.09454       -0.66831
H          0.32836       -2.05177        0.71701
C         -0.38738       -0.99842       -1.03721
H         -0.35113       -1.13251       -2.12498
H          0.10221       -0.04623       -0.81179
N         -1.76536       -1.06938       -0.57795
C         -2.35401       -0.03401       -0.12314
N         -3.52373       -0.08692        0.58863
H         -4.14748        0.69797        0.43439
C         -4.18101       -1.37171        0.75552
H         -4.46167       -1.82668       -0.20067
H         -5.07834       -1.21838        1.35492
H         -3.51811       -2.05897        1.28367
N         -1.87537        1.30758       -0.21269
H         -2.25799        1.99449        0.43350
C         -1.30333        1.78738       -1.31517
N         -0.80020        2.21798       -2.27246
