61
id_532_ca.log	Energy: -1741647.6386374
C          0.12975       -1.84949       -0.49405
H         -0.66905       -1.69146       -1.21197
C          1.45641       -1.96804       -0.89281
H          1.71666       -1.90918       -1.94533
C          2.43683       -2.18487        0.07777
C          2.13442       -2.26714        1.43680
H          2.91540       -2.44000        2.16971
C          0.80710       -2.14524        1.83750
H          0.52144       -2.21325        2.88171
C         -0.15871       -1.95165        0.86031
F         -1.44721       -1.85841        1.24372
S          4.10964       -2.42134       -0.46212
O          4.85354       -3.10995        0.58137
O          4.09262       -2.97134       -1.81521
N          4.77060       -0.89467       -0.68635
C          4.78515        0.03715        0.36350
O          4.73111       -0.35794        1.52630
N          4.91529        1.34818        0.00738
C          4.61378        2.30817        1.08218
H          5.04698        3.26729        0.78763
H          5.09040        1.98431        2.00565
C          3.09963        2.41825        1.25992
H          2.72791        1.45738        1.63359
H          2.86842        3.18524        2.00707
C          2.43476        2.78167       -0.07136
H          2.69474        3.81612       -0.32092
C          2.86263        1.87387       -1.22553
H          2.47024        2.23979       -2.17911
H          2.49921        0.84868       -1.07667
C          4.39018        1.83510       -1.27889
H          4.80126        2.83692       -1.42803
H          4.74854        1.23247       -2.11336
N          0.92889        2.79858        0.11306
H          0.76583        3.26478        1.01750
C          0.21094        3.61792       -0.92482
H          0.35548        3.11370       -1.88313
H          0.69257        4.59621       -0.95313
C         -1.26552        3.74177       -0.57209
H         -1.37796        4.29970        0.36576
H         -1.76039        4.30781       -1.36629
C         -1.90861        2.37117       -0.41612
H         -1.89564        1.85367       -1.38440
C         -1.14853        1.56248        0.62971
H         -1.22153        2.06793        1.60095
H         -1.55806        0.55594        0.74564
C          0.30386        1.43357        0.20689
H          0.87839        0.83640        0.91669
H          0.37872        0.98557       -0.78685
O         -3.26234        2.59801       -0.01580
C         -4.13312        1.54700        0.00830
C         -5.37014        1.79582        0.61317
H         -5.56832        2.77751        1.03130
C         -6.32556        0.79488        0.67731
H         -7.28427        0.98616        1.14876
C         -6.06331       -0.46814        0.14472
C         -4.83296       -0.70771       -0.46062
C         -3.86312        0.29193       -0.53783
H         -2.92060        0.06261       -1.02132
Cl        -4.45678       -2.26460       -1.13957
Cl        -7.27870       -1.70729        0.25790
H          4.65962       -0.57869       -1.64835
