58
id_560_cb.log	Energy: -1592136.9271509
C          1.54985        0.65275        3.03052
H          2.24771       -0.07410        2.60996
H          0.93548        0.18239        3.79607
H          2.11476        1.48195        3.45923
N          0.67693        1.15724        1.96822
C         -0.66574        0.99274        2.03491
H         -1.02811        0.46016        2.90757
C         -1.51967        1.47382        1.07916
C         -0.93369        2.16367       -0.02766
C          0.41643        2.29233       -0.12559
H          0.88649        2.78482       -0.96761
C          1.30572        1.78158        0.89057
O          2.53587        1.88606        0.86641
C         -1.78680        2.74892       -1.13118
F         -2.68509        1.86461       -1.59052
F         -1.04329        3.12440       -2.18008
F         -2.45398        3.83280       -0.72081
C         -2.98491        1.18246        1.17016
O         -3.84049        2.03740        0.91256
N         -3.28529       -0.07861        1.54435
H         -2.55704       -0.78153        1.45734
C         -4.63980       -0.60223        1.43418
H         -5.33207        0.18226        1.74834
H         -4.74418       -1.44259        2.12438
C         -4.99394       -1.05819        0.01556
C         -4.25461       -2.31693       -0.44505
H         -4.70204       -3.16238        0.08843
H         -4.47037       -2.46093       -1.51976
N         -2.81441       -2.35179       -0.18128
C         -2.07383       -1.41937       -1.03698
H         -2.51381       -0.42668       -0.96101
H         -2.15501       -1.72455       -2.09776
C         -0.60914       -1.36732       -0.62263
H         -0.53258       -1.06454        0.42932
H         -0.09103       -0.61510       -1.22381
C          0.03041       -2.74276       -0.74799
H          0.14096       -3.02221       -1.80449
C         -0.81402       -3.77983       -0.01644
H         -0.42699       -4.78454       -0.21194
H         -0.72334       -3.58572        1.05864
C         -2.28606       -3.70011       -0.41194
H         -2.40967       -3.98647       -1.47280
H         -2.86037       -4.41264        0.18755
O          1.31703       -2.78863       -0.10336
C          2.27808       -1.89497       -0.46212
C          2.34666       -1.25928       -1.70407
H          1.60573       -1.44912       -2.47163
C          3.38297       -0.36911       -1.96063
H          3.43669        0.13430       -2.91993
C          4.35898       -0.11367       -1.00385
C          4.29471       -0.76770        0.22758
C          3.26014       -1.65069        0.50057
H          3.20190       -2.15278        1.46026
Cl         5.48167       -0.47191        1.46332
Cl         5.62147        1.02877       -1.35791
O         -4.79042       -0.01300       -0.93208
H         -4.86054        0.84156       -0.47117
H         -6.06151       -1.32357        0.03549
