43
id_566_ca.log	Energy: -1887889.8182031
C          5.05269       -1.46741       -0.26497
H          5.83709       -2.20793       -0.37919
C          3.95213       -1.71719        0.54995
H          3.84900       -2.66038        1.07716
C          2.96094       -0.75540        0.67556
C          3.02474        0.48649        0.02902
C          4.13054        0.71891       -0.80062
H          4.21731        1.66857       -1.32039
C          5.11547       -0.25131       -0.93836
Cl         6.48347        0.07513       -1.97803
C          1.96638        1.49358        0.15542
C          1.37628        2.24979       -0.88700
H          1.59183        2.18745       -1.94677
N          0.45571        3.08987       -0.44129
N          0.43910        2.88398        0.90033
H         -0.16988        3.43447        1.49626
C          1.31828        1.94540        1.30729
N          1.53796        1.67450        2.64359
H          0.73772        1.88362        3.23592
H          1.85667        0.72278        2.80405
O          1.87563       -1.05115        1.50322
C          0.66070       -1.24584        0.92816
C          0.48614       -1.37657       -0.45073
H          1.32077       -1.32868       -1.14260
C         -0.79164       -1.56294       -0.93194
C         -1.90020       -1.62928       -0.09512
C         -1.72368       -1.50319        1.28005
H         -2.57979       -1.54547        1.94635
C         -0.44676       -1.32418        1.78780
Cl        -0.21275       -1.20964        3.50435
S         -3.52244       -1.79365       -0.78543
O         -3.55033       -2.92622       -1.70463
O         -4.46720       -1.73075        0.32161
N         -3.76686       -0.44157       -1.73473
H         -3.22361       -0.52099       -2.59813
C         -3.63239        0.82233       -1.09474
C         -2.47787        1.54807       -1.03680
H         -1.50077        1.29876       -1.43427
S         -2.78210        3.02716       -0.22429
C         -4.42367        2.54257       -0.00153
H         -5.12655        3.18519        0.51555
N         -4.73815        1.38357       -0.50333
F         -0.97632       -1.65303       -2.25868
