50
id_556_cb.log	Energy: -789215.8510627
C         -2.20709        3.28973       -1.68817
H         -2.79773        2.68966       -0.98802
H         -2.18216        2.77724       -2.65478
H         -2.69853        4.25745       -1.81871
C         -0.80602        3.49137       -1.15354
H         -0.81626        3.96965       -0.16997
H         -0.19617        4.10260       -1.82634
O         -0.22839        2.18656       -1.04068
C          0.95915        2.04992       -0.41308
C          1.37575        0.72240       -0.22956
C          2.58327        0.52774        0.42127
C          3.33695        1.63695        0.87042
C          2.79953        2.88305        0.61815
H          3.34288        3.76692        0.94509
N          1.63171        3.11568       -0.01456
C          4.64705        1.45835        1.58225
H          5.37688        0.93272        0.95524
H          4.52720        0.87630        2.50344
H          5.06909        2.42998        1.84894
N          3.04128       -0.76048        0.61178
H          3.94547       -0.88702        1.04909
C          2.43999       -1.86644        0.04955
C          1.25366       -1.75047       -0.61171
C          0.49817       -0.42818       -0.66678
C         -0.76340       -0.46628        0.20023
C         -0.64799       -0.67704        1.57110
H          0.34171       -0.82695        1.99606
C         -1.76139       -0.69911        2.40365
H         -1.66238       -0.86452        3.47041
C         -3.01962       -0.50198        1.83438
C         -3.17637       -0.29145        0.45889
H         -4.16903       -0.14758        0.05008
C         -2.04460       -0.27472       -0.35171
O         -2.09943       -0.09459       -1.69994
C         -3.38369       -0.04612       -2.31382
H         -3.95428        0.81804       -1.96010
H         -3.94058       -0.96724       -2.11508
H         -3.19660        0.05115       -3.38259
C         -4.18719       -0.51869        2.67124
N         -5.12783       -0.53273        3.34951
C          0.64629       -2.92165       -1.27421
O          1.13516       -4.06469       -1.24358
N         -0.51204       -2.71295       -1.94750
H         -0.90375       -3.50773       -2.43554
H         -0.95683       -1.81299       -2.07921
C          3.23651       -3.12838        0.24218
H          4.11213       -2.92619        0.86370
H          3.57098       -3.52512       -0.71852
H          2.63244       -3.90075        0.71864
H          0.19121       -0.22450       -1.69708
