43
id_586_cb.log	Energy: -473406.7764628
C         -3.70897       -2.48523       -0.77335
H         -2.97484       -3.25561       -1.03311
H         -4.07146       -2.03394       -1.70326
H         -4.55425       -2.97478       -0.28184
C         -3.09085       -1.42921        0.14079
H         -2.75489       -1.89856        1.07180
H         -3.84577       -0.67939        0.40204
C         -1.92132       -0.77142       -0.57034
H         -2.24384       -0.30994       -1.50569
H         -1.14842       -1.49881       -0.82585
N         -1.24855        0.31268        0.23174
H         -0.46650        0.63462       -0.35549
C         -2.14181        1.50426        0.47641
H         -2.87864        1.19423        1.22059
H         -1.50585        2.27457        0.91424
C         -2.79792        2.05642       -0.77991
H         -3.52015        1.34398       -1.19242
H         -3.37861        2.92314       -0.44568
C         -1.79161        2.49728       -1.84131
H         -1.23255        1.65189       -2.25957
H         -1.06803        3.20339       -1.41825
H         -2.30249        2.99153       -2.67249
C         -0.63197       -0.17798        1.53754
C          0.24716        0.91185        2.15412
H         -0.33641        1.76406        2.51004
H          0.70219        0.45651        3.04001
C          1.34116        1.36547        1.18345
H          2.12195        1.89258        1.74390
H          0.94027        2.12079        0.48694
C          1.95858        0.23230        0.38984
C          1.44272       -1.06984        0.42334
C          2.01817       -2.08914       -0.34944
H          1.59713       -3.09130       -0.31922
C          3.12561       -1.80067       -1.14727
H          3.57963       -2.58717       -1.74661
C          3.65228       -0.51348       -1.19244
H          4.51274       -0.29097       -1.82047
C          3.08654        0.54757       -0.43692
O          3.56927        1.76190       -0.48583
C          0.24798       -1.39986        1.30007
H          0.58591       -1.72213        2.29239
H         -0.31107       -2.24361        0.88597
H         -1.47492       -0.41888        2.18906
