51
id_555_ca.log	Energy: -804842.6609795
C         -2.41619        2.84471        0.04562
C         -1.53622        2.99087       -1.17981
O         -0.41547        2.08597       -1.10451
C          0.64735        2.45747       -0.37332
O          0.75401        3.57996        0.10390
C          1.60115        1.34657       -0.19984
C          2.88197        1.55392        0.19419
N          3.72982        0.50001        0.55907
C          3.42087       -0.72902        0.26374
C          2.18850       -1.07257       -0.43407
C          1.05984       -0.05461       -0.40361
C          0.01508       -0.37867        0.66218
C          0.36645       -0.43255        2.00628
C         -0.57461       -0.70197        3.00984
C         -1.89877       -0.91605        2.67092
C         -2.29498       -0.86566        1.32621
C         -1.33387       -0.60121        0.34264
O         -1.67589       -0.53798       -0.97748
C         -2.95582       -0.70312       -1.36620
C         -3.95603       -0.95592       -0.48703
C         -3.69894       -1.06190        0.92844
O         -4.59188       -1.29659        1.76100
C         -3.10237       -0.57059       -2.84071
C          1.95687       -2.25498       -1.06624
O          0.69685       -2.43478       -1.53921
C          2.89580       -3.38732       -1.33983
C          4.38564       -1.77514        0.75515
C          3.53704        2.89765        0.33415
H         -3.25075        3.55002       -0.01965
H         -1.85518        3.05750        0.96119
H         -2.82836        1.83212        0.11003
H         -1.16583        4.01069       -1.30069
H         -2.06353        2.69287       -2.08745
H          0.56066       -0.08537       -1.37400
H          1.40422       -0.25530        2.28315
H         -0.26107       -0.73650        4.04823
H         -2.64791       -1.11947        3.42980
H         -4.96872       -1.07911       -0.85399
H         -2.48481       -1.32197       -3.34378
H         -2.75583        0.41848       -3.15882
H         -4.14469       -0.70199       -3.13321
H          3.93635       -3.07290       -1.35671
H          2.65559       -3.81420       -2.31934
H          2.77096       -4.17745       -0.59035
H          4.91709       -1.37940        1.62317
H          5.13293       -2.00461       -0.01250
H          3.88195       -2.70402        1.03082
H          3.41919        3.27191        1.35850
H          3.11870        3.63958       -0.34551
H          4.60783        2.78894        0.14312
H          0.63905       -3.26199       -2.04717
