63
id_523_ca.log	Energy: -1396975.3010224
C          8.58876        2.80349        0.59202
H          9.26596        3.60267        0.87908
C          8.13977        1.88951        1.54754
H          8.46863        1.97422        2.57927
C          7.27186        0.86264        1.18061
H          6.92909        0.15188        1.92869
C          6.84023        0.74606       -0.14478
C          7.29595        1.65831       -1.09811
H          6.96140        1.56733       -2.12874
C          8.16683        2.68538       -0.73184
H          8.51294        3.39214       -1.48048
C          5.88409       -0.36523       -0.55786
C          6.58244       -1.67741       -0.22758
O          7.44727       -2.02310       -1.18986
O          6.43956       -2.32116        0.79176
N          4.57822       -0.28757        0.09628
C          3.97747        1.03598       -0.12932
H          4.63774        1.80113        0.28519
H          3.88262        1.23018       -1.21486
C          2.61070        1.13911        0.53389
H          2.19778        2.13656        0.34512
H          2.72823        1.03010        1.62034
C          1.65472        0.06120        0.01473
H          1.48232        0.25658       -1.05226
C          2.31687       -1.30944        0.16552
H          1.72071       -2.09655       -0.31384
H          2.40227       -1.56047        1.23192
C          3.69693       -1.31636       -0.47918
H          3.59135       -1.14884       -1.56758
H          4.15726       -2.29834       -0.34088
C          0.34284        0.17809        0.77841
H          0.52463        0.10123        1.85481
H         -0.15518        1.12967        0.56960
N         -0.65869       -0.89463        0.45845
H         -0.23889       -1.80533        0.69443
C         -1.03193       -0.92867       -0.99501
H         -0.11982       -1.08704       -1.57040
H         -1.43740        0.06003       -1.22747
C         -2.02874       -2.04547       -1.26545
H         -1.55724       -3.01476       -1.06730
H         -2.30065       -2.01689       -2.32432
C         -3.27397       -1.93207       -0.39877
H         -3.92714       -2.78999       -0.58413
C         -2.87720       -1.85105        1.07347
H         -2.44269       -2.81311        1.36855
H         -3.74678       -1.67504        1.71364
C         -1.88067       -0.73020        1.31801
H         -2.29884        0.24841        1.06595
H         -1.54157       -0.71750        2.35491
O         -3.93557       -0.72707       -0.81620
C         -5.20928       -0.47807       -0.40399
C         -6.03334       -1.39757        0.24993
H         -5.69114       -2.39454        0.50080
C         -7.33251       -1.02842        0.58904
H         -7.97733       -1.73913        1.09622
C         -7.81994        0.23796        0.28772
C         -6.98700        1.15124       -0.36433
C         -5.68926        0.79976       -0.70594
H         -5.04114        1.50823       -1.21177
Cl        -7.54777        2.74863       -0.76272
Cl        -9.45092        0.65299        0.72871
H          5.77407       -0.32366       -1.65485
H          7.93585       -2.82328       -0.91260
