23
id_593_cb.log	Energy: -880772.1396908
C          2.53126        2.88789        0.49234
H          3.40593        2.64293        1.10233
H          1.85701        3.52724        1.06501
H          2.87776        3.43022       -0.39326
C          1.82094        1.64417        0.08711
N          0.61535        1.37845        0.41783
N          0.19741        0.17361       -0.12074
C          1.23179       -0.69859       -0.67410
S          2.63171        0.44837       -0.94267
C          1.65535       -1.83339        0.29247
O          1.41406       -1.67503        1.51232
O          2.24900       -2.79807       -0.25259
C         -1.01938       -0.35366        0.18641
O         -1.28571       -1.50481       -0.17412
C         -1.97579        0.50920        0.97538
H         -1.86823        1.55766        0.68784
H         -1.66870        0.43869        2.02871
C         -3.41766        0.05032        0.83484
H         -4.04744        0.57895        1.55230
H         -3.51050       -1.01956        1.03183
S         -4.09835        0.30416       -0.84479
H         -4.15770        1.64573       -0.77884
H          0.91084       -1.11914       -1.62779
