47
id_552_ca.log	Energy: -1629150.2631525
C          6.53538       -1.50748        1.22965
H          6.90432       -2.37683        1.76293
C          5.24053       -1.52166        0.72531
H          4.61318       -2.39236        0.85335
C          4.73677       -0.41203        0.03541
C          5.57738        0.69524       -0.15182
C          6.87374        0.67424        0.34892
C          7.37131       -0.40984        1.04772
H          8.38707       -0.38013        1.42457
F          7.64891        1.74661        0.14947
Cl         5.03655        2.11164       -1.00026
N          3.45050       -0.38161       -0.51534
H          3.29418        0.29016       -1.25884
C          2.34628       -1.01121        0.01532
O          2.37971       -1.71512        1.01832
N          1.20564       -0.76929       -0.71003
H          1.23509       -0.06121       -1.43664
C         -0.07282       -1.23477       -0.38745
C         -0.32913       -2.37944        0.35108
H          0.49144       -2.97164        0.73031
C         -1.63973       -2.77890        0.60103
H         -1.82862       -3.67629        1.17827
C         -2.70500       -2.05217        0.10508
C         -2.47858       -0.89492       -0.67166
C         -1.15168       -0.48647       -0.91142
O         -0.77953        0.60508       -1.61470
H         -1.53443        0.95882       -2.13251
S         -3.80909        0.13962       -1.27240
O         -5.00073       -0.64723       -1.52705
O         -3.25662        0.93075       -2.37874
N         -4.17372        1.23100       -0.07353
C         -4.82109        0.65949        1.12236
H         -5.63109       -0.00256        0.81666
H         -4.09332        0.09744        1.72596
C         -5.40996        1.78749        1.94534
H         -5.84868        1.40196        2.86476
H         -6.15333        2.35143        1.38061
N         -4.32582        2.74937        2.31915
H         -4.72464        3.52699        2.85815
H         -3.64459        2.27837        2.93018
C         -3.62416        3.28604        1.11044
H         -4.36027        3.85950        0.54609
H         -2.82039        3.93745        1.45150
C         -3.06720        2.13692        0.29452
H         -2.30319        1.59872        0.87461
H         -2.61425        2.54736       -0.60833
Cl        -4.29505       -2.66681        0.47486
