18
id_55_cb.log	Energy: -249850.1308294
C         -2.54928       -0.55334        0.02867
H         -2.66952       -1.19144        0.91171
H         -2.68869       -1.19196       -0.85200
H         -3.34460        0.19490        0.03518
C         -1.19740        0.10340        0.01292
C         -1.05323        1.49818        0.00482
H         -1.93186        2.13546        0.01310
C          0.21331        2.04915       -0.02353
H          0.34733        3.12732       -0.04064
N          1.33908        1.31459       -0.01822
C          1.21049       -0.00858        0.00005
C         -0.03976       -0.67017       -0.00555
N         -0.05707       -2.07210        0.03836
H          0.67398       -2.48118       -0.53934
H         -0.95389       -2.46247       -0.23516
N          2.36841       -0.78519       -0.03943
H          3.19218       -0.23488        0.18258
H          2.31723       -1.60858        0.55528
