59
id_529_cb.log	Energy: -1741071.7576229
C          7.42204       -2.20584       -1.19331
H          8.45186       -2.09475       -1.51610
C          6.87460       -1.39644       -0.20149
H          7.48064       -0.62977        0.27120
C          5.54776       -1.58451        0.17965
C          4.75138       -2.56457       -0.40857
H          3.72075       -2.69831       -0.09511
C          5.29031       -3.37835       -1.40146
H          4.70523       -4.15550       -1.88182
C          6.61252       -3.17501       -1.76614
F          7.14069       -3.96466       -2.72721
S          4.84633       -0.53695        1.44122
O          5.96432       -0.15070        2.34036
O          3.78608       -1.33487        2.10860
N          4.28547        0.67197        0.55155
C          3.65832        1.67335        1.23788
O          3.47864        1.69893        2.47937
N          3.25031        2.73794        0.45664
C          2.22669        3.62408        1.01779
H          2.32486        4.59410        0.51666
H          2.42184        3.77337        2.07863
C          0.82639        3.05346        0.78211
H          0.74730        2.09637        1.31489
H          0.08073        3.73587        1.20617
C          0.58804        2.84611       -0.72310
H          0.68213        3.83090       -1.20443
C          1.69833        1.96471       -1.30256
H          1.57861        1.87835       -2.38855
H          1.65340        0.95408       -0.87674
C          3.07088        2.56281       -0.98770
H          3.87330        1.94137       -1.38020
H          3.15666        3.55513       -1.44620
N         -0.75300        2.35969       -1.09614
C         -1.14933        1.13150       -0.40102
H         -1.28608        1.31107        0.68056
H         -0.36255        0.38099       -0.51027
C         -2.45553        0.58422       -0.97247
H         -2.72016       -0.34087       -0.44983
H         -2.32969        0.34751       -2.03623
C         -3.55391        1.63155       -0.83596
H         -3.78362        1.81341        0.22267
C         -3.11702        2.93907       -1.47544
H         -3.87452        3.71075       -1.30193
H         -3.01932        2.79193       -2.55808
C         -1.77979        3.38426       -0.89023
H         -1.45473        4.30865       -1.37742
H         -1.91769        3.60750        0.18319
O         -4.75674        1.22539       -1.51164
C         -5.54633        0.25895       -0.96964
C         -6.61323       -0.17469       -1.76723
H         -6.74497        0.25556       -2.75484
C         -7.48770       -1.13959       -1.29624
H         -8.31391       -1.47519       -1.91497
C         -7.31450       -1.69122       -0.02587
C         -6.25345       -1.25638        0.76292
C         -5.36479       -0.28442        0.30286
H         -4.55262        0.02537        0.94897
Cl        -5.99452       -1.91420        2.35338
Cl        -8.42740       -2.90699        0.53182
