62
id_521_ca.log	Energy: -1396693.3540338
C          8.77153        2.62799        0.67720
H          9.49079        3.37662        0.99684
C          8.18449        1.77352        1.61362
H          8.44827        1.85525        2.66445
C          7.26149        0.81204        1.20599
H          6.81407        0.14922        1.94160
C          6.90696        0.69482       -0.14380
C          7.49952        1.55263       -1.07388
H          7.22673        1.47042       -2.12365
C          8.42789        2.51392       -0.66901
H          8.87717        3.17437       -1.40543
C          5.91857       -0.36044       -0.60956
C          6.60149       -1.73961       -0.42305
O          6.50243       -2.32129        0.68821
O          7.26620       -2.15777       -1.41225
N          4.62281       -0.26971        0.07095
C          4.03360        1.05776       -0.14917
H          4.71003        1.81707        0.25157
H          3.92674        1.25028       -1.23494
C          2.67477        1.18466        0.52734
H          2.27197        2.18652        0.33888
H          2.80020        1.07781        1.61325
C          1.70106        0.11650        0.02063
H          1.52206        0.31006       -1.04573
C          2.34873       -1.26137        0.17000
H          1.73703       -2.04373       -0.29808
H          2.44194       -1.50805        1.23699
C          3.72306       -1.28732       -0.48770
H          4.17496       -2.27294       -0.34857
H          3.60613       -1.12621       -1.57725
C          0.39614        0.25023        0.79356
H          0.58612        0.18406        1.86927
H         -0.09942        1.20174        0.57855
N         -0.61162       -0.82214        0.49319
H         -0.19014       -1.73124        0.73234
C         -1.82522       -0.64933        1.36259
H         -1.47647       -0.62475        2.39609
H         -2.24697        0.32591        1.10357
C         -2.82210       -1.77467        1.14027
H         -2.38330       -2.73175        1.44517
H         -3.68714       -1.59151        1.78460
C         -3.23124       -1.87776       -0.32732
H         -3.87888       -2.74349       -0.49521
C         -1.99379       -1.99305       -1.20491
H         -1.51452       -2.95737       -1.00106
H         -2.27652       -1.97776       -2.26117
C         -1.00063       -0.86823       -0.95561
H         -1.41451        0.11648       -1.19033
H         -0.09445       -1.02532       -1.54060
O         -3.90809       -0.68466       -0.75431
C         -5.19178       -0.45887       -0.36111
C         -5.99122       -1.37380        0.32879
H         -5.62136       -2.34826        0.62429
C         -7.30310       -1.03046        0.64580
H         -7.92812       -1.73839        1.18081
C         -7.82733        0.20595        0.28778
C         -7.01896        1.11492       -0.40043
C         -5.70931        0.78919       -0.72091
H         -5.08108        1.49418       -1.25581
Cl        -7.62657        2.67442       -0.87327
Cl        -9.47265        0.58992        0.70330
H          5.77511       -0.22579       -1.69582
