68
id_543_ca.log	Energy: -1763135.6068112
C          0.11825       -2.61711       -2.66987
H         -0.49058       -3.39248       -2.19943
H          0.48705       -3.00134       -3.62414
H         -0.51506       -1.74006       -2.87996
N          1.27402       -2.29391       -1.84349
C          2.15975       -1.38454       -2.57465
H          2.53515       -1.89434       -3.46666
H          3.01006       -1.07439       -1.97099
H          1.60682       -0.48620       -2.89498
C          1.01235       -1.97148       -0.50008
C         -0.31525       -1.75806       -0.07384
H         -1.11779       -1.80293       -0.80086
C         -0.63978       -1.47829        1.24930
H         -1.68276       -1.32409        1.51801
C          0.35813       -1.38477        2.21393
H          0.12142       -1.15916        3.24875
C          1.67714       -1.61177        1.83219
H          2.46331       -1.58759        2.57846
C          2.01500       -1.91716        0.50994
S          3.77425       -2.27329        0.27248
O          3.91778       -3.21197       -0.85881
O          4.24237       -2.83053        1.56278
N          4.48057       -0.90969       -0.17322
C          4.57056        0.12099        0.71747
O          4.47917        0.04484        1.95931
N          4.83683        1.35249        0.11643
C          4.28593        1.57202       -1.22661
H          4.74138        2.48304       -1.62744
H          4.55301        0.74328       -1.87949
C          2.76481        1.71555       -1.14817
H          2.35631        1.87345       -2.15126
H          2.36499        0.77120       -0.75989
C          2.40405        2.86886       -0.21612
H          2.68922        3.81699       -0.68566
C          3.09225        2.76214        1.14500
H          2.69163        1.91932        1.71744
H          2.92008        3.67851        1.72073
C          4.59462        2.52867        0.95916
H          5.07874        2.39742        1.92573
H          5.05767        3.38660        0.46221
N          0.89973        2.98310       -0.02109
H          0.76764        3.69850        0.70896
C          0.24495        1.72504        0.48240
H          0.33756        0.97645       -0.30885
H          0.78604        1.38666        1.36522
C         -1.21629        1.99229        0.79454
H         -1.64787        1.07737        1.20931
H         -1.31090        2.78088        1.55159
C         -1.92286        2.43323       -0.48108
H         -1.82818        1.66233       -1.25807
C         -1.28314        3.71649       -0.98547
H         -1.41515        4.51071       -0.24070
H         -1.75107        4.03965       -1.91985
C          0.19831        3.48579       -1.25416
H          0.34081        2.72857       -2.02845
H          0.69859        4.40814       -1.55319
O         -3.30749        2.69653       -0.24855
C         -4.15005        1.63742       -0.06613
C         -5.46880        1.95940        0.27413
H         -5.74846        3.00215        0.38472
C         -6.40296        0.95424        0.46319
H         -7.42616        1.20390        0.72529
C         -6.03938       -0.38585        0.32086
C         -4.72646       -0.69962       -0.01759
C         -3.77478        0.30108       -0.21418
H         -2.76551        0.00610       -0.47893
Cl        -4.21883       -2.35366       -0.20501
Cl        -7.23568       -1.62390        0.56851
