66
id_568_ca.log	Energy: -1096871.7976399
C         -2.83557        3.07063       -0.72906
H         -3.77899        3.23915       -1.23945
C         -1.75745        3.91204       -0.98252
H         -1.85999        4.74633       -1.66748
C         -0.53483        3.67277       -0.36469
C         -0.37628        2.61189        0.53249
C         -1.49206        1.82505        0.82151
H         -1.36573        1.03143        1.55481
C         -2.71417        2.02455        0.18347
C         -3.88103        1.11314        0.45888
H         -4.21662        1.18565        1.49653
H         -4.71929        1.32347       -0.20822
N         -3.50909       -0.32911        0.24658
C         -3.03950       -0.60525       -1.15336
H         -2.13384       -0.02252       -1.32907
H         -3.83910       -0.25766       -1.81317
C         -2.78480       -2.09380       -1.36600
C         -1.61192       -2.68908       -0.57936
H         -1.42548       -3.68343       -1.00175
H         -0.71327       -2.08534       -0.73551
N         -1.84626       -2.83973        0.85803
H         -1.63546       -1.98251        1.36165
C         -3.19536       -3.32800        1.14962
H         -3.40745       -3.19191        2.21276
H         -3.21974       -4.40305        0.93721
C         -4.30612       -2.69786        0.30529
C         -4.64377       -1.24178        0.61325
H         -4.85702       -1.09167        1.67323
H         -5.49771       -0.92016        0.01193
O         -3.98000       -2.82228       -1.08030
C          0.89487        2.16835        1.21097
O          0.86003        1.79110        2.38595
N          2.00013        2.12052        0.44840
H          1.90993        2.34795       -0.53478
C          3.19536        1.39792        0.86408
H          4.07227        1.95850        0.52317
H          3.20419        1.38626        1.95655
C          3.25820       -0.03401        0.31833
C          2.02030       -0.85445        0.72848
H          1.11023       -0.38675        0.32330
H          1.92799       -0.85862        1.82337
C          2.13976       -2.29261        0.19908
H          1.25215       -2.86424        0.49583
C          2.24687       -2.26681       -1.33316
H          2.31258       -3.29192       -1.72034
H          1.34744       -1.80900       -1.76665
C          3.48960       -1.46619       -1.75023
H          3.56466       -1.44317       -2.84365
C          3.36608       -0.03049       -1.21812
H          4.24163        0.56140       -1.51943
H          2.47861        0.44727       -1.65627
C          4.74521       -2.12395       -1.15881
H          4.84839       -3.14673       -1.54368
H          5.63960       -1.56541       -1.46419
C          4.64005       -2.14880        0.37333
H          5.53770       -2.61276        0.79834
C          3.39714       -2.95098        0.78690
H          3.48151       -3.98423        0.42618
H          3.32267       -2.98915        1.88146
C          4.51349       -0.71108        0.89785
H          4.45105       -0.71427        1.99486
H          5.40335       -0.12860        0.62128
Cl         0.77414        4.77929       -0.71323
H         -2.59229       -2.22505       -2.43418
H         -5.22703       -3.26726        0.45715
H         -2.73535       -0.52951        0.88742
