31
id_57_ca.log	Energy: -408907.5206490
C         -2.74151        2.32572        0.17508
H         -3.35682        3.19516        0.38367
C         -1.47601        2.49281       -0.43614
H         -1.13193        3.48982       -0.69263
C         -0.68272        1.40515       -0.70833
H          0.28272        1.55744       -1.18231
C         -1.11356        0.09013       -0.38112
C         -2.38791       -0.07532        0.23488
C         -3.18552        1.06913        0.50071
H         -4.15500        0.92592        0.97043
C         -2.83775       -1.38001        0.57659
H         -3.81284       -1.48776        1.04387
C         -2.05446       -2.47451        0.32399
H         -2.39686       -3.47008        0.58693
C         -0.78453       -2.31363       -0.28291
H         -0.17080       -3.18886       -0.47758
C         -0.31631       -1.07118       -0.63718
C          1.04550       -0.93688       -1.27626
H          1.01493       -0.35251       -2.20087
H          1.43373       -1.92855       -1.53453
C          2.06000       -0.31600       -0.37138
N          3.11943        0.34799       -0.79150
C          4.02751        0.64743        0.32605
H          4.87564       -0.04047        0.30208
H          4.38641        1.67348        0.27143
C          3.11568        0.40021        1.54024
H          2.69941        1.32770        1.93952
H          3.61588       -0.14897        2.33565
N          2.03747       -0.40310        0.94399
H          1.22192       -0.73024        1.45075
H          3.38480        0.38528       -1.76932
