47
id_58_ca.log	Energy: -615249.5878234
C         -2.47110        2.74932        0.83968
H         -2.17819        3.74942        0.50959
H         -3.21718        2.85306        1.63519
H         -1.58753        2.25438        1.24958
C         -3.06265        1.99968       -0.33999
H         -2.32188        1.86860       -1.13278
C         -4.31209        2.66704       -0.88805
H         -4.05757        3.67045       -1.23747
H         -4.72633        2.10192       -1.72825
H         -5.07457        2.75622       -0.10718
N         -3.43113        0.59827        0.07930
H         -4.08272        0.64980        0.87459
C         -2.29373       -0.30486        0.42847
H         -1.54702       -0.19398       -0.36304
H         -1.87807        0.00531        1.38724
C         -2.82364       -1.72906        0.48479
C         -1.74585       -2.76543        0.77415
H         -1.31835       -2.62852        1.77020
H         -2.21716       -3.75184        0.74259
O         -0.75083       -2.78127       -0.24115
C          0.45623       -2.16062       -0.04499
C          0.79944       -1.39541        1.06910
H          0.10547       -1.22823        1.88481
C          2.07166       -0.82296        1.13681
H          2.32729       -0.22030        2.00544
C          3.00707       -0.98497        0.11575
C          2.63983       -1.75477       -0.99417
H          3.34790       -1.89340       -1.80781
C          1.38613       -2.34194       -1.07523
H          1.10221       -2.94516       -1.93184
C          4.31938       -0.24042        0.14431
H          5.11713       -0.83841       -0.30528
H          4.60284       -0.02103        1.17839
C          4.21470        1.09336       -0.63224
H          5.12651        1.68002       -0.49880
H          4.05332        0.90190       -1.69517
C          3.05036        1.85943       -0.06745
O          3.05516        2.42387        1.00996
O          1.95739        1.76838       -0.83383
C          0.74591        2.25656       -0.24319
H          0.54565        1.71032        0.68266
H         -0.03447        2.06770       -0.97901
H          0.82283        3.32556       -0.03373
O         -3.42090       -1.96193       -0.78315
H         -3.98921       -2.74577       -0.71189
H         -3.57402       -1.80016        1.28411
H         -3.94529        0.14209       -0.68844
