47
id_582_ca.log	Energy: -1172311.6787610
C         -0.89490        3.24868       -1.79024
H         -1.84931        3.78220       -1.83130
H         -0.11598        3.95964       -1.49213
H         -0.66294        2.87425       -2.79076
C         -0.98590        2.10436       -0.79210
C         -1.39276        2.62202        0.58824
H         -2.39558        3.05452        0.52092
H         -0.69553        3.40825        0.90776
O         -1.45644        1.59100        1.56386
H         -0.55137        1.33375        1.80347
N          0.30159        1.41663       -0.69664
H          1.12830        1.99360       -0.55612
C          0.45728        0.10359       -0.54540
C          1.75226       -0.44655       -0.25813
C          1.80629       -1.83949       -0.09631
N          3.02789       -2.37081        0.18365
H          3.10341       -3.38148        0.30645
C          4.19384       -1.64274        0.32080
O          5.25223       -2.21682        0.56707
C          4.00277       -0.19003        0.13897
N          2.84236        0.33572       -0.13327
C          5.17448        0.72802        0.27877
O          6.28545        0.37436        0.62596
O          4.86846        1.98973       -0.01519
C          5.94311        2.93598        0.11043
H          5.51362        3.89666       -0.16664
H          6.30169        2.95828        1.14118
H          6.75623        2.66866       -0.56697
N          0.75226       -2.65045       -0.19684
C         -0.39011       -2.01666       -0.49356
N         -0.59808       -0.71959       -0.67719
S         -1.76055       -3.11164       -0.64783
C         -3.10114       -1.97640       -1.10672
H         -2.78921       -1.41098       -1.98557
H         -3.91186       -2.64462       -1.41838
C         -3.59165       -1.05368       -0.01709
C         -3.64567       -1.39759        1.33760
H         -3.26859       -2.36649        1.65161
C         -4.17289       -0.52207        2.28509
H         -4.20485       -0.81429        3.32962
C         -4.66258        0.72880        1.90770
H         -5.07674        1.43097        2.62403
C         -4.60429        1.07119        0.57010
C         -4.07962        0.19823       -0.37278
F         -4.06665        0.59590       -1.66224
F         -5.05870        2.26620        0.14331
H         -1.71521        1.36392       -1.12532
