48
id_59_ca.log	Energy: -728482.7948837
C         -4.91466        1.62491       -0.71905
H         -4.97640        2.22934       -1.62350
H         -4.47125        2.19866        0.09542
H         -5.90004        1.25643       -0.43529
N         -4.03451        0.45696       -0.99035
C         -2.67020        0.88714       -1.43826
H         -2.79703        1.49633       -2.33409
H         -2.26477        1.49779       -0.62665
C         -1.80672       -0.32987       -1.71178
H         -0.80895        0.02468       -1.99306
H         -2.21822       -0.89346       -2.56894
N         -1.71350       -1.16175       -0.51895
C         -3.03319       -1.62264       -0.10966
H         -2.93661       -2.22381        0.79946
H         -3.50677       -2.25068       -0.88603
C         -3.92801       -0.44070        0.20562
H         -3.51006        0.16976        1.01104
H         -4.93759       -0.76112        0.46588
C         -0.80279       -2.27435       -0.70404
H         -0.88486       -2.94563        0.15761
H         -1.01964       -2.85955       -1.61096
C          0.65624       -1.85636       -0.81830
O          1.39399       -2.38207       -1.64185
N          1.11371       -0.87282        0.02799
C          2.46991       -0.42640       -0.05418
C          3.51477       -1.32390        0.15697
H          3.28463       -2.36143        0.37392
C          4.83004       -0.88201        0.07805
H          5.64153       -1.58347        0.24194
C          5.10581        0.45570       -0.20762
H          6.13242        0.80104       -0.26641
C          4.06271        1.34615       -0.42024
H          4.26083        2.38756       -0.65038
C          2.73406        0.91621       -0.33747
C          1.67806        1.93456       -0.61373
O          1.88955        2.85804       -1.39769
N          0.48281        1.87403        0.04673
H         -0.10622        2.68521       -0.12903
C          0.06174        1.03325        1.08921
C          0.34750       -0.33564        1.10358
N         -0.04624       -1.16514        2.05694
C         -0.84800       -0.67715        3.01037
H         -1.18287       -1.38227        3.76495
C         -1.24102        0.65584        3.06192
H         -1.89516        1.00474        3.85265
C         -0.76532        1.53041        2.09224
H         -1.03787        2.58188        2.09403
H         -4.45478       -0.08966       -1.75456
