66
id_545_ca.log	Energy: -1728425.5869297
C         -1.61502       -1.34329        2.04781
H         -2.22703       -2.25380        2.03519
H         -2.13946       -0.59055        1.45145
H         -1.54504       -0.98947        3.07987
C         -0.25588       -1.61690        1.46829
C         -0.12112       -1.87883        0.09707
H         -1.00429       -1.87966       -0.53681
C          1.12031       -2.14578       -0.46440
H          1.21778       -2.34458       -1.52773
C          2.23791       -2.16268        0.37244
C          2.14260       -1.90485        1.73784
H          3.02497       -1.92552        2.36903
C          0.88707       -1.62766        2.27447
H          0.79529       -1.42393        3.33786
S          3.82289       -2.45240       -0.35292
O          4.73679       -2.95967        0.66099
O          3.66000       -3.19331       -1.60237
N          4.36336       -0.94534       -0.86705
H          4.07914       -0.76912       -1.82870
C          4.40137        0.12958        0.04496
O          4.68695       -0.09353        1.22221
N          4.18720        1.36645       -0.46715
C          4.12454        2.46091        0.51528
H          4.84864        2.27066        1.30580
H          4.42018        3.37500       -0.00933
C          2.70521        2.60072        1.06694
H          2.44516        1.68051        1.60777
H          2.67702        3.43278        1.77870
C          1.72329        2.85533       -0.08015
H          2.05868        3.77389       -0.58366
C          1.83781        1.71653       -1.11006
H          1.18096        1.89289       -1.96937
H          1.55089        0.75545       -0.65656
C          3.28169        1.61499       -1.60312
H          3.39324        0.85701       -2.37792
H          3.59666        2.56272       -2.05132
N          0.36578        3.15389        0.40074
C         -0.44507        3.78174       -0.64982
H          0.11180        4.63543       -1.04895
H         -0.62639        3.08737       -1.48766
C         -1.78606        4.26219       -0.10124
H         -2.38551        4.69360       -0.91005
H         -1.62549        5.04261        0.65092
C         -2.55122        3.12258        0.55564
H         -3.47452        3.49207        1.01441
C         -1.66122        2.42443        1.58005
H         -1.46996        3.13640        2.39137
H         -2.16784        1.56130        2.02212
C         -0.34160        1.99006        0.94854
H          0.28455        1.50789        1.70605
H         -0.54629        1.23435        0.16629
O         -2.89135        2.22990       -0.53302
C         -3.49760        1.04825       -0.25701
C         -4.41355        0.87735        0.78039
H         -4.66020        1.70842        1.43264
C         -5.00178       -0.36439        0.98781
H         -5.70764       -0.50464        1.79991
C         -4.67901       -1.42503        0.15248
C         -3.77771       -1.30579       -0.91406
C         -3.19811       -0.04252       -1.08999
Cl        -2.04555        0.23062       -2.37425
C         -3.45948       -2.49186       -1.78147
H         -2.73436       -2.24889       -2.55687
H         -4.36893       -2.86435       -2.26445
H         -3.05519       -3.30845       -1.17343
Cl        -5.42568       -2.97777        0.46600
