51
id_556_ca.log	Energy: -789498.6727807
C         -2.22657        3.26165       -1.67481
H         -2.81032        2.64308       -0.98635
H         -2.18432        2.77042       -2.65084
H         -2.72458        4.22759       -1.78802
C         -0.83560        3.47810       -1.12912
H         -0.86299        3.91903       -0.12781
H         -0.22402        4.09862       -1.79157
O         -0.23253        2.16665       -1.03958
C          0.93028        1.99233       -0.44254
C          1.37491        0.68773       -0.24906
C          2.59442        0.49481        0.39143
C          3.37060        1.60421        0.84714
C          2.86730        2.84840        0.61697
H          3.37589        3.75581        0.91687
N          1.67366        3.03044       -0.01872
C          4.68294        1.40259        1.54393
H          5.39130        0.87194        0.89833
H          4.55445        0.81266        2.45787
H          5.12003        2.36503        1.81471
N          3.04620       -0.77481        0.57195
H          3.94550       -0.90843        1.02015
C          2.42194       -1.89972        0.04107
C          1.23075       -1.78365       -0.59751
C          0.48474       -0.45869       -0.67081
C         -0.77336       -0.47566        0.20018
C         -0.65684       -0.66896        1.57311
H          0.33165       -0.82216        2.00001
C         -1.77139       -0.66945        2.40439
H         -1.67501       -0.82115        3.47332
C         -3.02703       -0.46918        1.83051
C         -3.18275       -0.27626        0.45253
H         -4.17386       -0.12966        0.04099
C         -2.05061       -0.27962       -0.35776
O         -2.09926       -0.11500       -1.70688
C         -3.38186       -0.07217       -2.32683
H         -3.95214        0.79705       -1.98574
H         -3.93977       -0.99028       -2.11813
H         -3.18979        0.01133       -3.39575
C         -4.19510       -0.46300        2.66752
N         -5.13564       -0.45778        3.34574
C          0.59683       -2.96934       -1.22417
O          1.06223       -4.11547       -1.13451
N         -0.54188       -2.75605       -1.92257
H         -0.96285       -3.56245       -2.36603
H         -0.97669       -1.85418       -2.07534
C          3.21808       -3.15826        0.24669
H          4.12675       -2.93901        0.81210
H          3.49603       -3.60052       -0.71171
H          2.63258       -3.90097        0.78961
H          0.18279       -0.26518       -1.70441
H          1.34921        3.98417       -0.16659
