61
id_569_ca.log	Energy: -1001132.1889867
C         -4.21350        0.91704        0.41514
H         -4.94238        1.71227        0.54681
C         -4.65808       -0.38594        0.21821
H         -5.71924       -0.60869        0.18853
C         -3.73011       -1.40801        0.04725
C         -2.36370       -1.13690        0.05315
C         -1.94051        0.17943        0.25618
H         -0.87406        0.38953        0.27370
C         -2.84965        1.21641        0.44767
C         -2.40319        2.63270        0.73444
H         -2.49200        2.80845        1.81300
H         -3.09866        3.33566        0.24357
N         -1.01938        2.90913        0.35759
C         -0.61677        4.20584        0.90342
H         -0.72108        4.18921        1.99121
H         -1.25700        5.01845        0.51545
C          0.83125        4.51007        0.57501
H          1.50481        3.75026        0.97558
H          1.12374        5.49479        0.93827
N          1.01152        4.49926       -0.91183
H          0.46660        5.26800       -1.32395
C          0.55675        3.20015       -1.50233
H          1.22777        2.43215       -1.11189
H          0.66327        3.27114       -2.58446
C         -0.88144        2.94492       -1.09949
H         -1.53054        3.72416       -1.53851
H         -1.18237        1.98425       -1.52590
C         -1.30618       -2.19754       -0.08644
O         -1.24522       -3.16053        0.68051
N         -0.42953       -1.97096       -1.08444
H         -0.54446       -1.11111       -1.60874
C          0.87507       -2.61585       -1.14893
H          1.13073       -2.76419       -2.20321
H          0.78155       -3.59979       -0.68161
C          1.97595       -1.80012       -0.46039
C          2.10096       -0.40364       -1.09928
H          1.15364        0.14475       -0.98537
H          2.29260       -0.50942       -2.17659
C          3.23333        0.39069       -0.43221
H          3.30779        1.38115       -0.89872
C          4.55908       -0.36442       -0.60892
H          5.37708        0.20181       -0.14513
H          4.79235       -0.46546       -1.67682
C          4.45110       -1.75324        0.03892
H          5.39452       -2.29596       -0.09149
C          3.31415       -2.54062       -0.62991
H          3.52570       -2.67264       -1.70011
H          3.23537       -3.54208       -0.18453
C          4.14806       -1.59325        1.53631
H          4.08609       -2.57969        2.01397
H          4.96090       -1.04110        2.02553
C          2.82062       -0.84163        1.71635
H          2.60064       -0.73151        2.78458
C          2.92395        0.54583        1.06434
H          1.97785        1.09006        1.19481
H          3.71258        1.13281        1.55265
C          1.68999       -1.63451        1.04347
H          1.59002       -2.62503        1.50846
H          0.73698       -1.10671        1.18838
Cl        -4.31506       -3.03079       -0.23734
H          1.99606        4.66566       -1.14783
