64
id_535_ca.log	Energy: -1750953.9226429
C          2.90672       -1.22811        2.43384
H          3.58530       -1.29623        3.28396
H          2.86872       -0.19493        2.07470
H          3.24604       -1.89310        1.63101
O          1.63217       -1.64502        2.91805
C          0.63105       -1.80143        2.00840
C          0.72141       -1.39182        0.67352
H          1.61005       -0.89270        0.29937
C         -0.34499       -1.64127       -0.19096
H         -0.26968       -1.33772       -1.23289
C         -1.48532       -2.29054        0.27796
C         -1.58742       -2.67023        1.61791
H         -2.48074       -3.17121        1.97613
C         -0.53155       -2.42319        2.48214
H         -0.58094       -2.72597        3.52361
S         -2.81394       -2.65924       -0.86040
O         -3.63455       -3.71939       -0.22922
O         -2.17064       -3.06259       -2.13193
N         -3.60310       -1.30037       -1.17515
C         -4.17077       -0.65359       -0.11932
O         -4.28859       -1.10039        1.04219
N         -4.66660        0.61332       -0.42660
C         -4.80860        1.51924        0.71883
H         -5.41798        2.36772        0.39306
H         -5.33568        1.01487        1.52684
C         -3.43297        1.99645        1.19387
H         -3.54295        2.71660        2.01284
H         -2.88619        1.12723        1.57563
C         -2.67747        2.64572        0.03372
H         -3.16430        3.59626       -0.21267
C         -2.64024        1.76462       -1.21368
H         -2.20178        2.30002       -2.06136
H         -2.04814        0.86033       -1.03288
C         -4.06281        1.32136       -1.56133
H         -4.69415        2.18852       -1.77980
H         -4.05612        0.67871       -2.43887
N         -1.28265        3.04482        0.48729
H         -1.40421        3.50517        1.40094
C         -0.35275        1.88240        0.71003
H         -0.18915        1.41247       -0.26202
H         -0.84796        1.17098        1.37162
C          0.95848        2.36768        1.30253
H          0.78659        2.86050        2.26643
H          1.58875        1.49422        1.49426
C          1.63142        3.36397        0.36212
H          2.57665        3.72544        0.77816
C          0.68728        4.53100        0.10684
H          1.12312        5.22094       -0.62156
H          0.54790        5.07800        1.04560
C         -0.65708        4.05962       -0.43121
H         -0.54719        3.57905       -1.40463
H         -1.36187        4.88805       -0.51693
O          1.86383        2.77420       -0.93383
C          2.57471        1.61084       -1.01798
C          2.19486        0.71264       -2.01898
H          1.35064        0.95319       -2.65828
C          2.88665       -0.48031       -2.17617
H          2.58951       -1.18785       -2.94386
C          3.95474       -0.79031       -1.33421
C          4.33588        0.11862       -0.34735
C          3.65236        1.32118       -0.18256
H          3.96358        2.01026        0.59599
Cl         5.66898       -0.22193        0.71658
Cl         4.77586       -2.31026       -1.52872
