64
id_534_cb.log	Energy: -1750909.2528229
C         -6.40407        5.34014       -2.04877
H         -6.16346        5.89146       -1.13473
H         -7.06162        5.93908       -2.67741
H         -5.48560        5.10399       -2.59455
O         -7.13320        4.15341       -1.74695
C         -6.53711        3.22980       -0.96179
C         -7.30381        2.08564       -0.68501
H         -8.30174        2.01208       -1.10323
C         -6.78808        1.08292        0.11187
H         -7.37757        0.19932        0.33496
C         -5.49821        1.22974        0.63235
C         -4.72809        2.35683        0.36637
H         -3.73187        2.45466        0.78489
C         -5.24724        3.36627       -0.43655
H         -4.64807        4.24500       -0.63954
S         -4.83830       -0.04485        1.64627
O         -5.91374       -0.70824        2.37674
O         -3.70638        0.48448        2.40484
N         -4.30407       -1.11225        0.45007
H         -3.96752       -0.63113       -0.38382
C         -3.64229       -2.28027        0.88167
O         -3.60984       -2.55291        2.07983
N         -3.14884       -3.08221       -0.09655
C         -2.92347       -2.61080       -1.46814
H         -2.93836       -3.49838       -2.10825
H         -3.75065       -1.98014       -1.79609
C         -1.56963       -1.91001       -1.57770
H         -1.58814       -1.00895       -0.95073
H         -1.40313       -1.59607       -2.61265
C         -0.45021       -2.85966       -1.13389
H         -0.47592       -3.71582       -1.82312
C         -0.74645       -3.40602        0.27438
H          0.00825       -4.14179        0.57213
H         -0.72949       -2.59143        1.00980
C         -2.12879       -4.05659        0.31778
H         -2.37333       -4.42095        1.31379
H         -2.18325       -4.89841       -0.37958
N          0.87738       -2.25113       -1.31027
C          1.18128       -1.20915       -0.32577
H          0.36308       -0.48518       -0.29694
H          1.28406       -1.62928        0.69047
C          2.48101       -0.49435       -0.68822
H          2.68161        0.29673        0.04105
H          2.38933       -0.03008       -1.67683
C          3.62099       -1.50404       -0.73454
H          3.79752       -1.92621        0.26364
C          3.27861       -2.63491       -1.69018
H          3.21578       -2.23278       -2.70779
H          4.06650       -3.39416       -1.66861
C          1.94159       -3.25727       -1.29652
H          2.04792       -3.72629       -0.30193
H          1.68245       -4.05033       -2.00433
O          4.83403       -0.90729       -1.21540
C          5.55235       -0.10103       -0.39073
C          5.26925        0.12843        0.95839
H          4.41549       -0.32453        1.44654
C          6.10114        0.96055        1.70013
H          5.88445        1.14011        2.74765
C          7.20774        1.56936        1.12199
C          7.48325        1.33644       -0.22765
C          6.66382        0.50999       -0.98003
H          6.87729        0.32709       -2.02732
Cl         8.85659        2.07383       -1.00040
Cl         8.21747        2.60390        2.09042
