39
id_52_ca.log	Energy: -1096079.4841417
C          0.89492        3.54607        1.78504
H          0.57658        3.26289        2.79188
H          0.26083        4.36962        1.43662
H          1.92682        3.90694        1.83541
C          0.80305        2.36044        0.83589
C          1.33603        2.73960       -0.54551
H          2.39778        2.99062       -0.46141
H          0.79792        3.62230       -0.91806
O          1.24478        1.67540       -1.48379
H          0.31482        1.56667       -1.74128
N         -0.58597        1.90875        0.73154
H         -1.24807        2.62685        0.45006
C         -0.94988        0.62194        0.53991
C         -2.24604        0.25849        0.13224
C         -2.49301       -1.09541       -0.03061
N         -3.78133       -1.35023       -0.45460
H         -4.13638       -2.28986       -0.62188
C         -4.58166       -0.25937       -0.64174
O         -5.74341       -0.26613       -1.00909
S         -3.65793        1.22618       -0.25683
N         -1.60788       -2.06964        0.17554
C         -0.41857       -1.61258        0.58606
N         -0.05188       -0.35525        0.78306
S          0.75620       -2.89866        0.89532
C          2.24296       -1.96100        1.35705
H          1.99953       -1.30775        2.19807
H          2.91869       -2.73781        1.73353
C          2.92214       -1.17331        0.25858
C          2.95860       -1.60448       -1.07027
H          2.43827       -2.51438       -1.35838
C          3.65592       -0.87377       -2.03335
H          3.67267       -1.22197       -3.06237
C          4.32890        0.29618       -1.68041
H          4.86915        0.86468       -2.43204
C          4.29579        0.73422       -0.35614
H          4.81043        1.64730       -0.06921
C          3.59395        0.00500        0.60364
H          3.56598        0.35257        1.63437
H          1.38247        1.51923        1.22076
