45
id_500_cb.log	Energy: -898838.1141921
C          8.05903       -1.57464        0.60216
H          8.28882       -2.57977        0.94173
C          9.08901       -0.67882        0.32905
H         10.12604       -0.97323        0.45198
C          8.78100        0.61191       -0.10812
H          9.54828        1.34557       -0.33388
C          7.45509        0.95669       -0.25541
C          6.39784        0.08058        0.01188
C          6.72021       -1.20766        0.44819
H          5.93070       -1.91513        0.66475
N          5.10343        0.57071       -0.18017
H          5.00959        1.53325       -0.49095
C          3.94277       -0.10022       -0.00423
N          3.70898       -1.32455        0.37606
N          2.32121       -1.45248        0.37122
C          1.82760       -0.32309       -0.00258
O          2.81449        0.59223       -0.25894
C          0.40772        0.13186       -0.19345
O          0.26929        1.32978       -0.58212
N         -0.47533       -0.80663        0.04825
C         -1.84188       -0.51706       -0.04864
C         -2.70819       -1.54966       -0.43779
H         -2.28444       -2.51637       -0.69534
C         -4.08923       -1.37191       -0.49374
H         -4.70803       -2.20695       -0.80433
C         -4.68633       -0.14912       -0.16075
C         -3.79907        0.86416        0.22208
C         -2.42843        0.71798        0.29124
H         -1.82976        1.56416        0.60703
F         -4.31285        2.08588        0.52894
N         -6.07999        0.11183       -0.21831
C         -6.66678        0.38662        1.10577
H         -6.11525        1.18826        1.59959
H         -6.60798       -0.51669        1.73626
C         -8.11699        0.80451        0.95280
H         -8.57540        0.94505        1.93409
H         -8.18191        1.74535        0.38711
O         -8.87439       -0.19866        0.28378
C         -8.31504       -0.47046       -0.99725
H         -8.37960        0.43275       -1.62091
H         -8.92319       -1.25874       -1.44614
C         -6.87199       -0.92677       -0.87868
H         -6.46988       -1.11316       -1.87887
H         -6.84501       -1.87213       -0.31065
F          7.13016        2.20404       -0.67981
