45
id_551_cb.log	Energy: -1628606.0621795
C         -6.69665       -1.71644       -0.23064
H         -7.13685       -2.70420       -0.31970
C         -5.34677       -1.59710        0.07974
H         -4.74293       -2.48057        0.24507
C         -4.75152       -0.33469        0.19853
C         -5.55254        0.80344        0.02002
C         -6.90405        0.65112       -0.27081
C         -7.49709       -0.58926       -0.40944
H         -8.55438       -0.65560       -0.64247
F         -7.64935        1.76059       -0.43295
Cl        -4.89301        2.40328        0.14992
N         -3.39961       -0.18169        0.53016
H         -3.13241        0.67381        1.00740
C         -2.38275       -0.97920        0.03622
O         -2.58531       -1.89758       -0.76229
N         -1.15662       -0.64575        0.52001
H         -1.06621        0.13778        1.16540
C          0.08834       -1.18085        0.15869
C          0.29746       -2.25346       -0.67535
H         -0.53799       -2.77722       -1.11959
C          1.60601       -2.67404       -0.97615
H          1.76262       -3.50220       -1.65775
C          2.68712       -2.03145       -0.41742
C          2.51074       -0.94812        0.48376
C          1.19086       -0.46085        0.77469
O          0.91643        0.53901        1.52022
S          3.87524       -0.10542        1.25531
O          5.04782       -0.98319        1.28296
O          3.45702        0.44618        2.54635
N          4.30119        1.20245        0.29547
C          3.25307        2.23621        0.17247
H          2.40747        1.84758       -0.41708
H          2.89839        2.50530        1.16836
C          3.84315        3.45533       -0.52690
H          3.05740        4.20699       -0.63644
H          4.63412        3.88377        0.09860
N          4.41123        3.15793       -1.84405
H          3.64867        2.83808       -2.44433
C          5.37286        2.05971       -1.72629
H          6.23860        2.42127       -1.16055
H          5.71805        1.77548       -2.72346
C          4.80735        0.82161       -1.03901
H          5.58718        0.06731       -0.92396
H          3.98923        0.40352       -1.64880
Cl         4.25387       -2.63490       -0.93232
