62
id_519_cb.log	Energy: -1396660.2143991
C          8.50661        2.87601        0.48098
H          9.15704        3.70270        0.74913
C          8.04651        2.00103        1.46541
H          8.33846        2.14429        2.50110
C          7.21463        0.93930        1.12339
H          6.86074        0.25976        1.89466
C          6.83039        0.74730       -0.20789
C          7.29317        1.62398       -1.18860
H          6.99372        1.47573       -2.22256
C          8.12981        2.68533       -0.84596
H          8.48423        3.36257       -1.61677
C          5.91650       -0.40420       -0.59376
C          6.61593       -1.69286       -0.15823
O          7.50925       -2.21460       -0.78895
O          6.21860       -2.18707        1.01805
H          5.46649       -1.62733        1.32314
N          4.59102       -0.34220        0.03320
C          3.70909       -1.32969       -0.61886
H          4.18593       -2.31469       -0.57487
H          3.59199       -1.07090       -1.68614
C          2.34148       -1.38597        0.04781
H          1.73017       -2.13371       -0.46762
H          2.45503       -1.71502        1.08987
C          1.66487       -0.01681        0.01655
H          1.49679        0.25630       -1.03507
C          2.61958        1.02249        0.60813
H          2.19738        2.02929        0.51320
H          2.75399        0.82251        1.67947
C          3.98244        0.99425       -0.07210
H          4.64398        1.72217        0.40145
H          3.87920        1.27783       -1.13498
C          0.33889        0.01507        0.77219
H         -0.11352        1.01832        0.64375
H          0.54859       -0.10166        1.84366
N         -0.62045       -1.02635        0.40171
C         -0.98921       -0.91038       -1.01135
H         -0.09446       -1.04096       -1.62560
H         -1.38984        0.09847       -1.22639
C         -2.01204       -1.97010       -1.40916
H         -2.28934       -1.84419       -2.46023
H         -1.56945       -2.96544       -1.29527
C         -3.25840       -1.91079       -0.53870
H         -3.92909       -2.73944       -0.78898
C         -2.86424       -1.93331        0.93550
H         -2.46132       -2.92629        1.16304
H         -3.73714       -1.77652        1.57721
C         -1.81681       -0.86714        1.23313
H         -2.26111        0.13532        1.08319
H         -1.51741       -0.92942        2.28414
O         -3.90816       -0.66841       -0.87041
C         -5.17548       -0.44111       -0.44221
C         -6.00443       -1.39338        0.15701
H         -5.66450       -2.40426        0.34422
C         -7.29900       -1.04063        0.52331
H         -7.94550       -1.77711        0.98842
C         -7.78153        0.24343        0.30373
C         -6.94629        1.19053       -0.29383
C         -5.65330        0.85465       -0.66252
H         -5.00324        1.58868       -1.12597
Cl        -7.50104        2.81269       -0.58878
Cl        -9.40837        0.63852        0.77788
H          5.84575       -0.43902       -1.69154
