54
id_642_cb.log	Energy: -793022.7945793
C         -1.24876        3.01994        1.04893
H         -0.28639        2.88306        1.55229
H         -1.40872        4.09101        0.89336
H         -2.04517        2.64093        1.69741
C         -1.25865        2.31350       -0.28547
H         -2.22176        2.40733       -0.79531
H         -0.46781        2.67692       -0.94820
O         -1.01497        0.91184       -0.02497
C         -0.92569        0.11039       -1.07891
O         -1.10066        0.49386       -2.22485
C         -0.55745       -1.34176       -0.75430
C         -1.64320       -2.29809       -1.28217
H         -1.94342       -1.96143       -2.28007
H         -1.18477       -3.28518       -1.39957
C         -2.88005       -2.44365       -0.38157
H         -2.60384       -2.95281        0.54800
H         -3.58936       -3.10020       -0.89977
C         -3.55275       -1.13246       -0.04380
C         -3.63884       -0.69084        1.28081
H         -3.24334       -1.31824        2.07795
C         -4.21241        0.54402        1.59050
H         -4.26230        0.87252        2.62514
C         -4.71281        1.35597        0.57335
H         -5.15229        2.32123        0.80934
C         -4.64535        0.92006       -0.75235
H         -5.03573        1.54519       -1.55101
C         -4.07128       -0.31329       -1.05572
H         -4.01396       -0.64193       -2.09181
N         -0.21787       -1.64352        0.62799
H         -0.99489       -1.38636        1.23739
C          0.98348       -0.98379        1.13488
C          1.14108       -1.28650        2.62499
H          1.26016       -2.36253        2.78741
H          0.25265       -0.94440        3.16624
H          2.01295       -0.76865        3.03602
C          2.22142       -1.50127        0.40086
O          2.30247       -2.68674        0.02392
N          3.24222       -0.64965        0.23876
C          4.44907       -1.05507       -0.50033
H          5.05278       -1.72747        0.11990
H          4.16667       -1.59037       -1.41055
C          5.16465        0.26799       -0.77529
H          6.24851        0.14371       -0.82486
H          4.82110        0.68912       -1.72601
C          4.71712        1.15891        0.38622
H          5.26531        0.89840        1.29780
H          4.84474        2.22669        0.19642
C          3.23680        0.78010        0.56102
C          2.33871        1.61704       -0.37897
O          1.87178        1.08030       -1.41496
O          2.16184        2.81518       -0.02095
H          0.33796       -1.51631       -1.36494
H          0.92089        0.10163        1.00946
H          2.90531        0.94765        1.58903
