37
id_626_cb.log	Energy: -1047784.5663152
C          1.86572        0.46715       -1.47811
H          2.53426        1.29961       -1.69109
C          0.49414        0.70478       -1.45184
H          0.14328        1.71158       -1.65158
C         -0.41512       -0.33100       -1.16116
C          0.12346       -1.61180       -0.91591
H         -0.52151       -2.45265       -0.68503
C          1.49814       -1.82525       -0.94559
H          1.87482       -2.82401       -0.73051
C          2.40345       -0.79330       -1.21010
C          3.89145       -1.00865       -1.09719
H          4.15639       -1.99591       -1.49421
H          4.41584       -0.26134       -1.70610
C          4.39918       -0.90658        0.35192
H          5.47975       -1.09187        0.34808
H          3.94252       -1.69834        0.95782
C          4.13192        0.45220        1.00180
H          4.39007        1.26472        0.31300
H          4.78561        0.56700        1.87763
C          2.71339        0.69034        1.53180
O          2.07892       -0.28771        2.02044
O          2.27999        1.88146        1.51543
N         -1.79645       -0.10033       -1.15983
C         -2.69918       -1.16263       -0.75145
H         -3.70730       -0.89926       -1.08242
H         -2.42652       -2.08777       -1.26690
C         -2.70624       -1.39302        0.75890
H         -3.21343       -0.58813        1.29018
H         -1.70056       -1.52389        1.16086
Cl        -3.62276       -2.90459        1.13867
C         -2.28715        1.26652       -1.07048
H         -1.87293        1.86602       -1.88711
H         -3.37066        1.24438       -1.21012
C         -1.96127        1.92863        0.26773
H         -0.89675        1.88632        0.50248
H         -2.53507        1.49859        1.08792
Cl        -2.40580        3.67948        0.19763
