44
id_669_cb.log	Energy: -837720.1205749
C         -4.70613        3.05632       -0.89689
H         -4.36916        3.70531       -0.08385
H         -5.57383        3.53496       -1.36085
H         -3.90764        2.99835       -1.64285
C         -5.08723        1.66467       -0.41199
H         -5.48371        1.09863       -1.26218
H         -5.90541        1.73391        0.32856
N         -3.96364        0.89501        0.13204
C         -3.53407        1.40281        1.43832
H         -3.48509        2.49366        1.38077
H         -4.27738        1.16034        2.21938
C         -2.16002        0.87990        1.84107
H         -1.85285        1.32480        2.79258
H         -2.14966       -0.20818        1.96766
H         -1.41461        1.14096        1.08251
C         -4.33155       -0.52282        0.21551
H         -5.42188       -0.64954        0.30285
H         -3.89449       -0.96608        1.11350
C         -3.82546       -1.30856       -0.98915
H         -4.13467       -2.35379       -0.91427
H         -4.23038       -0.90108       -1.91856
N         -2.37115       -1.25762       -1.08431
H         -1.97956       -0.43313       -1.52167
C         -1.59977       -1.90233       -0.18469
O         -2.06025       -2.72748        0.61430
C         -0.13810       -1.57140       -0.19191
C          0.58123       -1.79920        0.98354
H          0.07034       -2.20932        1.84848
C          1.93117       -1.48322        1.05440
H          2.48832       -1.63520        1.97439
C          2.57976       -0.97020       -0.06963
C          1.87864       -0.76807       -1.25964
H          2.39895       -0.40593       -2.13854
C          0.51991       -1.05455       -1.31180
H         -0.00990       -0.90491       -2.24767
N          3.98227       -0.68364       -0.01615
H          4.41438       -1.10004        0.81421
S          4.37968        0.95416       -0.04886
O          3.89615        1.63426        1.15691
O          3.93296        1.48704       -1.33525
C          6.14376        0.86185        0.00039
H          6.49043        0.32198       -0.88114
H          6.44763        0.35846        0.92026
H          6.50921        1.89112       -0.00585
