39
id_624_ca.log	Energy: -505528.7063926
C         -3.22076        1.55856        1.85031
H         -2.20103        1.62760        2.24506
H         -3.72691        0.70786        2.31248
H         -3.75943        2.46676        2.13206
C         -3.19578        1.46022        0.33562
H         -4.19456        1.24973       -0.05599
C         -2.61355        2.70036       -0.32082
H         -3.25375        3.55798       -0.10111
H         -2.55293        2.58343       -1.40721
H         -1.61178        2.90711        0.07126
N         -2.35352        0.28456       -0.08757
H         -1.37399        0.43888        0.19129
C         -2.80266       -1.05069        0.40643
H         -2.61590       -1.10486        1.47944
H         -3.87664       -1.10522        0.21703
C         -2.08436       -2.18201       -0.33454
C         -0.62755       -2.33087        0.06375
H         -0.17592       -3.17787       -0.46514
H         -0.53617       -2.48449        1.14473
O          0.00589       -1.11608       -0.32458
C          1.31499       -0.92005        0.01866
C          2.13412       -1.86806        0.60375
H          1.76283       -2.86207        0.82543
C          3.47454       -1.54052        0.91828
H          4.09634       -2.30320        1.37640
C          4.00855       -0.29244        0.66409
H          5.03648       -0.04944        0.91109
C          3.15750        0.65459        0.07078
C          1.81624        0.36543       -0.25997
C          1.24570        1.54823       -0.83492
H          0.23980        1.67367       -1.21237
C          2.23871        2.49125       -0.83349
H          2.22764        3.51418       -1.18124
N          3.38433        1.95907       -0.29110
H          4.25983        2.45233       -0.17651
O         -2.21833       -1.99465       -1.73628
H         -1.39113       -1.61049       -2.07337
H         -2.60049       -3.10913       -0.06688
H         -2.34261        0.24374       -1.11645
