44
id_644_ca.log	Energy: -554580.9076909
C         -4.08954        2.53304        0.56162
H         -4.12815        3.22527        1.40846
H         -5.10411        2.15524        0.39077
H         -3.79085        3.10322       -0.32565
C         -3.11670        1.38649        0.82746
H         -3.42215        0.85496        1.73587
H         -2.11157        1.78523        1.01467
C         -3.05545        0.43084       -0.36026
H         -2.75196        1.00748       -1.24297
H         -4.07058        0.03959       -0.57443
N         -2.10683       -0.67329       -0.20306
C         -2.60346       -1.69519        0.72177
H         -3.08507       -1.18938        1.56504
H         -3.38318       -2.31042        0.23285
C         -1.50208       -2.59791        1.27867
H         -1.98462       -3.35192        1.91294
H         -1.01146       -3.14947        0.46653
C         -0.45279       -1.84190        2.09053
H         -0.92408       -1.27448        2.90277
H          0.10420       -1.13420        1.46667
H          0.26976       -2.53322        2.53783
C         -1.78681       -1.25779       -1.50783
H         -1.50401       -2.30518       -1.36716
H         -2.67680       -1.25859       -2.16215
C         -0.62755       -0.54304       -2.21144
H         -0.48757       -1.00879       -3.19473
H         -0.88180        0.50818       -2.38782
C          0.64466       -0.63908       -1.40668
C          1.28256       -1.87369       -1.19975
H          0.88123       -2.76650       -1.67440
C          2.41082       -1.98924       -0.39297
H          2.88864       -2.95306       -0.24027
C          2.95736       -0.87192        0.24545
C          2.34034        0.35294        0.03064
C          1.20317        0.46665       -0.78119
C          0.78123        1.91185       -0.78519
H         -0.22031        2.07754       -0.36960
H          0.80632        2.37350       -1.77865
C          1.81309        2.58234        0.10504
O          1.88086        3.77741        0.39331
N          2.67489        1.62225        0.54045
H          3.46432        1.83536        1.14263
O          4.06994       -1.06027        1.03389
H          4.34791       -0.23645        1.46611
