31
id_634_ca.log	Energy: -351154.0175167
C         -0.57745       -2.49998       -0.15127
H         -1.21060       -3.32228       -0.49373
H         -0.17568       -2.77920        0.82964
H          0.26972       -2.40134       -0.83666
C         -1.37013       -1.22202       -0.07561
C         -2.76109       -1.23057        0.06326
H         -3.27809       -2.18513        0.11544
C         -3.48037       -0.04078        0.12725
H         -4.56040       -0.06581        0.23442
C         -2.81805        1.18252        0.04302
H         -3.37904        2.11231        0.08375
C         -1.43064        1.23348       -0.09865
C         -0.73569        0.02097       -0.14995
O          0.63962        0.07135       -0.32467
C          1.37399       -0.03293        0.89274
H          1.14672        0.80803        1.55780
H          1.12595       -0.96916        1.40787
C          2.84319        0.00153        0.52363
C          3.26357        1.28461       -0.16846
H          2.68066        1.44548       -1.07950
H          4.32599        1.25612       -0.42481
H          3.09260        2.12498        0.50891
N          3.09638       -1.15840       -0.39994
H          4.07520       -1.18203       -0.70858
H          2.49708       -1.07986       -1.23189
C         -0.68440        2.53509       -0.21916
H          0.08238        2.63401        0.55693
H         -1.37180        3.37958       -0.13076
H         -0.17357        2.60705       -1.18517
H          3.44235       -0.18261        1.41664
H          2.88135       -2.05357        0.05587
