45
id_613_cb.log	Energy: -1041651.5896497
C         -3.32931        2.61643       -0.38995
H         -3.52583        3.35757       -1.16783
H         -3.86396        2.86775        0.52733
H         -3.59546        1.61502       -0.73544
S         -1.58490        2.65521       -0.06892
O         -0.90686        2.28682       -1.34017
O         -1.25201        4.02413        0.41024
N         -1.45861        1.53651        1.09741
C         -0.21476        1.24625        1.53653
O          0.85283        1.74069        1.11121
C         -0.18457        0.28941        2.72003
H         -0.06477        0.93424        3.60124
H         -1.15675       -0.20535        2.81755
C          0.94618       -0.74250        2.69098
H          1.86498       -0.27069        2.32184
H          1.15005       -1.07530        3.71456
C          0.61141       -1.97931        1.84277
H         -0.24660       -2.48991        2.29663
H          1.44615       -2.68564        1.89206
C          0.26113       -1.64726        0.41895
C         -1.06702       -1.66149       -0.13205
C         -2.31621       -2.02066        0.38604
H         -2.42237       -2.41191        1.39424
C         -3.43816       -1.85035       -0.42428
C         -3.34568       -1.33321       -1.74285
H         -4.25058       -1.21768       -2.33079
C         -2.11942       -0.97492       -2.26829
H         -2.03247       -0.56832       -3.27120
C         -0.99184       -1.13809       -1.45131
N          0.31562       -0.83812       -1.68824
H          0.67861       -0.43169       -2.54374
C          1.07510       -1.12557       -0.56575
C          2.50795       -0.79344       -0.54343
C          3.43649       -1.64879        0.06564
H          3.10697       -2.58920        0.49590
C          4.78888       -1.32070        0.10647
H          5.51976       -1.97509        0.57052
C          5.19236       -0.13070       -0.47811
C          4.31139        0.73961       -1.09925
H          4.67547        1.66181       -1.54041
C          2.96125        0.40036       -1.12464
H          2.25342        1.08442       -1.58562
F          6.50766        0.19373       -0.44441
C         -4.72894       -2.20552        0.08873
N         -5.77646       -2.49230        0.50196
