44
id_645_cb.log	Energy: -554563.8967318
C          3.88886        2.59778        0.55419
H          3.93621        3.26549        1.41918
H          3.47458        3.16472       -0.28672
H          4.91432        2.31457        0.29271
C          3.04016        1.36458        0.85044
H          2.01582        1.66450        1.10318
H          3.44402        0.84968        1.72905
C          2.99749        0.42483       -0.35108
H          4.02273        0.07393       -0.58244
H          2.66590        1.00440       -1.22204
N          2.08051       -0.70392       -0.19935
C          2.57971       -1.70624        0.74405
H          3.36605       -2.32781        0.27660
H          3.05107       -1.18481        1.58339
C          1.47059       -2.59749        1.30420
H          0.97930       -3.14883        0.49269
H          1.93934       -3.35176        1.94736
C          0.42469       -1.81949        2.09726
H          0.88999       -1.28673        2.93502
H         -0.34003       -2.48758        2.50612
H         -0.07645       -1.07771        1.46739
C          1.79498       -1.30772       -1.50180
H          2.69409       -1.30861       -2.14273
H          1.52052       -2.35609       -1.35132
C          0.63636       -0.61786       -2.23063
H          0.89258        0.42487       -2.44908
H          0.49072       -1.12034       -3.19405
C         -0.62964       -0.67517       -1.41376
C         -1.29121       -1.88928       -1.17885
H         -0.91435       -2.79713       -1.64373
C         -2.41876       -1.96937       -0.36164
H         -2.91582       -2.92162       -0.19561
C         -2.93388       -0.82743        0.25442
C         -2.28185        0.37424        0.01788
C         -1.15283        0.45587       -0.79850
C         -0.70570        1.89316       -0.81365
H         -0.72702        2.35078       -1.80855
H          0.30108        2.04176       -0.40526
C         -1.72270        2.59258        0.08233
O         -1.76268        3.78391        0.36515
N         -2.60077        1.64356        0.52179
H         -3.38109        1.84534        1.13620
O         -4.03581       -0.81508        1.06910
H         -4.39143       -1.71707        1.13236
