15
id_6_cb.log	Energy: -505616.9090282
C         -2.12140        1.84083        0.00012
H         -1.61986        2.81298        0.00012
H         -2.77569        1.79155        0.87918
H         -2.77575        1.79159       -0.87890
C         -1.12310        0.71691        0.00006
C          0.24506        0.97494        0.00002
H          0.59609        2.00481        0.00003
C          1.16766       -0.07099       -0.00004
C          0.73817       -1.39246       -0.00007
H          1.45917       -2.20574       -0.00012
C         -0.62857       -1.66147       -0.00003
H         -0.97112       -2.69399       -0.00005
C         -1.60686       -0.63163        0.00005
O         -2.88764       -0.89297        0.00008
Cl         2.89191        0.29328       -0.00009
