55
id_640_ca.log	Energy: -793304.3486152
C          0.77001        3.14166       -0.39960
H          1.20282        3.19226        0.60467
H         -0.32035        3.08937       -0.31120
H          1.03062        4.05834       -0.93659
C          1.30946        1.94863       -1.15162
H          2.40022        1.97331       -1.23036
H          0.88276        1.86087       -2.15568
O          0.93637        0.77161       -0.39982
C          1.44827       -0.38863       -0.79947
O          2.16019       -0.50479       -1.78043
C          0.99615       -1.55065        0.07786
C          2.17258       -2.42381        0.51402
H          1.75299       -3.35125        0.92088
H          2.76785       -2.69358       -0.36655
C          3.06342       -1.78217        1.58719
H          3.78855       -2.53526        1.91571
H          2.44836       -1.52270        2.45662
C          3.80267       -0.55444        1.10665
C          3.41929        0.72817        1.51142
H          2.58867        0.84141        2.20568
C          4.08116        1.85992        1.02859
H          3.76659        2.84874        1.35231
C          5.13890        1.72090        0.13110
H          5.65429        2.59920       -0.24722
C          5.53346        0.44404       -0.27775
H          6.35947        0.32697       -0.97392
C          4.87128       -0.68110        0.20887
H          5.18067       -1.67379       -0.11338
N          0.05561       -2.35588       -0.71551
H         -0.25972       -3.12086       -0.11594
C         -1.12218       -1.61632       -1.16176
C         -2.07756       -2.55007       -1.90172
H         -2.39095       -3.36546       -1.24040
H         -1.58133       -2.97547       -2.77793
H         -2.97159       -2.01081       -2.23085
C         -1.89507       -0.98948        0.00169
O         -2.03821       -1.61102        1.06996
N         -2.43573        0.22514       -0.17808
C         -2.45799        1.00689       -1.43101
H         -1.48560        1.48719       -1.58718
H         -2.67692        0.36294       -2.28536
C         -3.56443        2.03310       -1.17976
H         -3.39283        2.95890       -1.73265
H         -4.53077        1.61963       -1.48643
C         -3.53541        2.23639        0.33742
H         -4.46160        2.65076        0.74139
H         -2.70597        2.88880        0.62563
C         -3.24628        0.82179        0.87238
C         -4.53241        0.03672        1.06736
O         -5.01341       -0.73357        0.26106
O         -5.10764        0.32993        2.23826
H         -5.95631       -0.14893        2.31312
H          0.51768       -1.11954        0.96967
H         -0.78762       -0.82989       -1.84639
H         -2.70961        0.83751        1.82415
