44
id_647_cb.log	Energy: -521055.8345653
C         -3.90379       -2.57491        1.21853
H         -3.73350       -3.60113        0.88034
H         -4.93110       -2.28582        0.93341
H         -3.83543       -2.55506        2.30984
N         -2.90199       -1.68742        0.64046
C         -3.15763       -0.32663        1.09857
H         -2.37706        0.35471        0.74883
H         -3.15792       -0.30432        2.19217
H         -4.13406        0.05450        0.74723
C         -3.00238       -1.76402       -0.81800
H         -2.82328       -2.80617       -1.10750
H         -4.02663       -1.50833       -1.14970
C         -2.01393       -0.86176       -1.56041
H         -2.13655       -1.07041       -2.63157
H         -2.26949        0.19155       -1.41757
C         -0.59462       -1.13388       -1.16052
H         -0.29454       -2.18163       -1.21463
C          0.30792       -0.24952       -0.70543
C          1.69196       -0.70294       -0.35917
C          2.32890       -1.56541       -1.26970
H          1.79925       -1.83924       -2.17743
C          3.61150       -2.04968       -1.05351
H          4.07246       -2.71068       -1.78096
C          4.30004       -1.66640        0.09573
H          5.30570       -2.02904        0.28515
C          3.68497       -0.81155        1.00053
H          4.21540       -0.51773        1.90383
C          2.38931       -0.31351        0.80271
C          1.86400        0.59621        1.90262
H          2.10307        0.12206        2.86126
H          2.43808        1.53217        1.87974
C          0.37377        0.94493        1.89014
H          0.13717        1.48377        2.81262
H         -0.22040        0.02229        1.88856
C          0.01128        1.79360        0.70136
C         -0.00406        1.20328       -0.57205
C         -0.31689        1.97970       -1.69094
H         -0.32617        1.51406       -2.67314
C         -0.61185        3.33505       -1.55417
H         -0.85290        3.92794       -2.43111
C         -0.59504        3.92246       -0.29138
H         -0.82458        4.97744       -0.17639
C         -0.28586        3.15110        0.82801
H         -0.27921        3.60427        1.81631
