44
id_616_cb.log	Energy: -838721.1086447
C          3.99951        0.54523       -1.13035
H          3.62030        1.24422       -1.86940
C          4.98705       -0.37204       -1.47229
H          5.40068       -0.41933       -2.47290
C          5.43664       -1.23712       -0.47958
N          4.99842       -1.24494        0.78735
C          4.06640       -0.34807        1.09603
H          3.72019       -0.34179        2.12538
C          3.52286        0.55527        0.17689
C          2.53872        1.56560        0.69529
O          2.79294        2.13192        1.76296
N          1.44979        1.85594       -0.05799
C          0.48840        2.81723        0.49212
H          0.02118        3.32997       -0.35250
H          1.02918        3.55032        1.08823
C         -0.56970        2.10049        1.32526
H         -0.08364        1.61501        2.18085
H         -1.29796        2.82157        1.70820
C         -1.30006        1.03996        0.49720
C         -0.26005        0.10100       -0.14768
H         -0.76635       -0.60937       -0.81090
H          0.23616       -0.46830        0.64970
C          0.80485        0.86584       -0.93239
H          0.35859        1.40350       -1.77309
H          1.54409        0.17372       -1.33145
N         -2.18216        0.29324        1.40808
H         -1.67743       -0.14623        2.17416
C         -3.07864       -0.55173        0.78956
C         -3.53628       -1.72202        1.40133
C         -4.46173       -2.55262        0.81068
H         -4.77243       -3.45471        1.32643
C         -4.97027       -2.22285       -0.44759
H         -5.69227       -2.85078       -0.95520
C         -4.52867       -1.06140       -1.05029
C         -3.59493       -0.20053       -0.46950
C         -3.11587        1.09661       -1.00687
N         -2.08227        1.70378       -0.53611
N         -3.88187        1.71254       -1.96063
H         -3.42476        2.48010       -2.43838
H         -4.46666        1.13245       -2.54452
F         -5.02950       -0.76387       -2.26896
F         -3.02020       -2.02459        2.61091
C          6.45793       -2.21076       -0.80029
N          7.27496       -2.98743       -1.06515
