34
id_658_cb.log	Energy: -329111.9192606
C         -2.74549       -0.95152       -0.74808
H         -2.96384       -1.96238       -0.38369
H         -2.77182       -0.97310       -1.84412
H         -3.54607       -0.28652       -0.40279
C         -1.38755       -0.47457       -0.24564
C         -1.36160       -0.44634        1.29241
H         -2.15632        0.21804        1.65918
H         -1.57177       -1.45318        1.67911
C          0.00527        0.03689        1.79676
H          0.00854        0.05441        2.89282
C          1.09820       -0.91602        1.29295
H          0.92411       -1.92856        1.68267
H          2.08212       -0.58934        1.65740
C          1.11000       -0.95451       -0.24473
C         -0.27316       -1.41542       -0.73424
H         -0.47016       -2.43548       -0.37272
H         -0.27968       -1.45301       -1.83383
C          1.35251        0.47355       -0.76161
H          1.36551        0.47365       -1.86204
H          2.33634        0.83059       -0.42188
C          0.26720        1.44553       -0.27147
C          0.27047        1.45104        1.26115
H          1.24271        1.81820        1.61961
H         -0.49872        2.14711        1.61985
C         -1.09520        0.94454       -0.76206
H         -1.87912        1.63467       -0.42047
H         -1.11007        0.94881       -1.86260
N          0.47288        2.81750       -0.75540
H          0.52334        2.77477       -1.77544
H          1.40909        3.10515       -0.46265
C          2.19615       -1.89770       -0.74938
H          3.18611       -1.57314       -0.40722
H          2.20956       -1.92784       -1.84548
H          2.02917       -2.91814       -0.38435
