52
id_648_cb.log	Energy: -688034.1766801
C          5.71901       -1.67408       -0.36582
H          5.78547       -2.59157       -0.95735
H          5.91376       -1.93333        0.68024
H          6.51716       -1.00145       -0.69776
C          4.35310       -1.01371       -0.51896
H          3.56356       -1.70801       -0.19911
H          4.16056       -0.78147       -1.57305
C          4.24416        0.26682        0.29811
H          4.98672        0.99685       -0.04802
H          4.48086        0.04846        1.35371
N          2.91402        0.85640        0.15594
H          2.22986        0.14504        0.41049
C          2.70585        2.01213        1.02794
H          2.72106        1.75885        2.09905
H          3.52658        2.71399        0.84391
C          1.38400        2.70900        0.67521
C          0.16124        2.02465        1.26647
H         -0.75292        2.53916        0.94481
H          0.21406        2.03427        2.36210
O          0.15073        0.68296        0.78999
C         -0.82529       -0.16325        1.19810
C         -1.84381        0.19912        2.07961
H         -1.91701        1.21503        2.44999
C         -2.77165       -0.75920        2.48801
H         -3.56667       -0.46414        3.16601
C         -2.68207       -2.07754        2.04991
H         -3.40128       -2.81848        2.38165
C         -1.66084       -2.43229        1.17333
H         -1.58074       -3.44919        0.80017
C         -0.74655       -1.48343        0.71454
C          0.23250       -1.91697       -0.33147
O          0.75989       -3.01861       -0.24174
C          0.44231       -1.06838       -1.56741
H          0.75013       -0.05467       -1.30089
H          1.24095       -1.54111       -2.14521
C         -0.84688       -1.00124       -2.42241
H         -1.23381       -2.01404       -2.57866
H         -0.55453       -0.61357       -3.40423
C         -1.92917       -0.12185       -1.83879
C         -1.71721        1.25329       -1.69547
H         -0.77236        1.68576       -2.01676
C         -2.69073        2.06934       -1.12387
H         -2.50708        3.13505       -1.01939
C         -3.89672        1.52029       -0.68693
H         -4.65478        2.15461       -0.23763
C         -4.12162        0.15247       -0.83197
H         -5.05597       -0.28567       -0.49324
C         -3.14379       -0.65954       -1.40542
H         -3.31711       -1.72856       -1.50504
O          1.27097        2.80857       -0.73778
H          1.77848        2.04161       -1.07313
H          1.39914        3.72478        1.08571
