51
id_610_cb.log	Energy: -617048.5741145
C          0.39264       -2.78242        1.07212
H          1.44546       -2.83996        1.36696
H          0.31786       -3.11940        0.03377
H         -0.17659       -3.47563        1.70208
C         -0.12869       -1.36315        1.26598
H          0.41880       -0.68579        0.57936
C          0.11952       -0.89298        2.69299
H         -0.25284        0.12731        2.84223
H          1.19068       -0.90178        2.91886
H         -0.38808       -1.55292        3.40549
N         -1.57240       -1.29016        0.98452
H         -1.84971       -0.34260        1.24504
C         -1.87521       -1.45880       -0.43756
H         -1.25084       -0.82356       -1.08593
H         -1.67849       -2.49824       -0.71868
C         -3.35032       -1.18922       -0.71254
C         -3.80624        0.25001       -0.44165
H         -3.75394        0.47979        0.62766
H         -4.85119        0.34577       -0.74442
O         -3.08133        1.20059       -1.22243
C         -1.87482        1.65630       -0.73193
C         -1.68032        2.02188        0.60005
H         -2.49566        1.97462        1.31540
C         -0.41916        2.45141        1.01373
H         -0.26773        2.71683        2.05762
C          0.64885        2.54684        0.12033
C          0.41686        2.22465       -1.22143
H          1.23104        2.29889       -1.93729
C         -0.82951        1.78214       -1.64805
H         -1.00459        1.50540       -2.68323
C          2.03359        2.88387        0.61104
H          1.98266        3.54304        1.48366
H          2.60357        3.40100       -0.16843
C          2.78823        1.62031        1.00983
H          2.22340        1.07441        1.78285
H          3.77561        1.87094        1.42448
O          2.93548        0.81139       -0.14149
C          3.48584       -0.46350        0.15176
H          4.44307       -0.34227        0.68048
H          2.80188       -1.01599        0.81666
C          3.66835       -1.20953       -1.13782
H          4.45403       -0.82881       -1.78453
C          2.44360       -1.75752       -1.81349
H          1.48973       -1.59446       -1.31702
H          2.40438       -1.73135       -2.89712
C          3.42497       -2.69086       -1.16421
H          4.05608       -3.29497       -1.80680
H          3.13287       -3.16777       -0.23323
O         -4.16202       -2.05642        0.07015
H         -3.72949       -2.09421        0.94183
H         -3.55129       -1.41823       -1.76414
