13
id_685_ca.log	Energy: -145791.2263441
C         -2.48830       -0.23197       -0.04096
H         -2.48500       -1.04392        0.69248
H         -2.89138       -0.61602       -0.98511
H         -3.17916        0.54560        0.30542
C         -1.11302        0.32873       -0.23935
H         -1.01460        1.13282       -0.97149
C         -0.02096       -0.07518        0.41521
H         -0.08948       -0.88008        1.14957
C          1.33951        0.51547        0.19960
H          1.74179        0.91902        1.13365
H          1.28963        1.32998       -0.53371
O          2.29269       -0.47024       -0.21760
H          1.98334       -0.84778       -1.05699
