55
id_602_ca.log	Energy: -1650947.3971280
C         -3.87388        0.39290        2.82693
H         -4.74355        1.04794        2.76316
H         -2.99469        0.98189        3.09857
H         -4.04898       -0.36953        3.59110
C         -3.66201       -0.25560        1.51297
N         -4.48839       -0.18825        0.46739
C         -3.98070       -0.91321       -0.58573
C         -2.81070       -1.44956       -0.15722
N         -2.62893       -1.03391        1.15079
C         -1.43942       -1.31199        1.96181
H         -1.65170       -0.95817        2.97318
H         -1.31088       -2.39606        2.01383
C         -0.22393       -0.63344        1.39101
C         -0.10159        0.60606        0.84892
C          1.24906        0.90581        0.47530
C          1.75826        2.16372       -0.02301
O          1.06197        3.15575       -0.21860
N          3.13187        2.16930       -0.26197
C          3.99621        1.10411       -0.03871
O          5.19027        1.19568       -0.28768
N          3.45613       -0.05774        0.48923
C          2.11330       -0.13093        0.72850
S          1.30275       -1.48755        1.42919
C          4.36174       -1.20638        0.66178
H          5.28130       -0.82342        1.10754
H          3.90126       -1.88419        1.38867
C          4.65827       -1.93847       -0.64774
H          5.11202       -1.21307       -1.33355
C          3.39378       -2.50365       -1.28983
H          3.63966       -2.99920       -2.23419
H          2.65594       -1.72329       -1.50869
H          2.92577       -3.24752       -0.63345
C          5.66897       -3.04685       -0.36111
H          6.58937       -2.64574        0.07508
H          5.92944       -3.57557       -1.28274
H          5.24848       -3.77735        0.34006
C          3.76100        3.38535       -0.78380
H          2.98306        4.12973       -0.92579
H          4.24796        3.16563       -1.73452
H          4.50289        3.75020       -0.07231
C         -1.22359        1.60330        0.73374
O         -1.53412        2.33037        1.67771
N         -1.89516        1.62066       -0.43294
C         -3.00137        2.51934       -0.70916
H         -3.64948        2.03833       -1.44461
H         -2.64847        3.47910       -1.09841
H         -3.55325        2.68468        0.21779
O         -1.49428        0.77364       -1.44513
C         -0.82765        1.49187       -2.49375
H          0.00698        2.06963       -2.09143
H         -1.53040        2.14986       -3.01363
H         -0.47024        0.72046       -3.17654
Cl        -1.71385       -2.43851       -0.98282
Cl        -4.73458       -1.03552       -2.09657
H         -5.35712        0.34686        0.46019
