17
id_617_ca.log	Energy: -441351.1400733
N         -2.73155        0.38991        0.00000
H         -3.37432       -0.39310        0.00000
C         -1.42307        0.20904        0.00000
N         -0.52602        1.19124       -0.00000
H         -0.80343        2.17214       -0.00000
C          0.81899        0.79271       -0.00000
C          0.95227       -0.54695       -0.00000
S         -0.63316       -1.32873       -0.00000
C          2.18169       -1.39320        0.00000
H          2.21897       -2.03367        0.88622
H          3.06855       -0.75657       -0.00001
H          2.21896       -2.03369       -0.88621
C          1.86152        1.85706       -0.00000
H          1.75808        2.49013       -0.88641
H          2.85776        1.41516       -0.00002
H          1.75810        2.49010        0.88644
H         -3.11740        1.32909        0.00000
