46
id_62_cb.log	Energy: -727920.0836740
C         -6.34702       -0.99521        0.73598
H         -6.42188       -1.42575        1.73863
H         -6.48844       -1.80519       -0.00103
H         -7.15492       -0.26905        0.60803
N         -5.05746       -0.33531        0.57482
C         -4.96276        0.23490       -0.76957
H         -5.74736        0.98845       -0.89113
H         -5.12915       -0.54860       -1.53267
C         -3.60770        0.87872       -0.99831
H         -3.47715        1.72046       -0.29370
H         -3.56230        1.28324       -2.01424
N         -2.53171       -0.10315       -0.83213
C         -2.62281       -0.67606        0.51590
H         -1.84341       -1.43400        0.63839
H         -2.45117        0.11008        1.27445
C         -3.98131       -1.31279        0.74220
H         -4.11288       -2.15510        0.03721
H         -4.02637       -1.71979        1.75718
C         -1.25160        0.55841       -1.00331
H         -1.25770        1.12346       -1.94357
H         -1.06415        1.28509       -0.19402
C         -0.09377       -0.42540       -1.08115
O         -0.24191       -1.61200       -1.37753
N          1.14670        0.08863       -0.83506
C          2.27095       -0.78701       -0.69091
C          2.98080       -1.22786       -1.80595
H          2.65913       -0.92398       -2.79791
C          4.08536       -2.05566       -1.62633
H          4.64384       -2.40587       -2.48912
C          4.47261       -2.43272       -0.33732
H          5.33795       -3.07341       -0.19625
C          3.74716       -1.99697        0.76754
H          4.03648       -2.30158        1.76925
C          2.63633       -1.16088        0.60446
C          1.83744       -0.72865        1.81033
O          1.63549       -1.62833        2.68384
N          1.42968        0.51751        1.99910
C          1.56923        1.53349        1.07258
C          1.37967        1.40435       -0.32107
N          1.42864        2.39872       -1.20124
C          1.65087        3.63282       -0.73898
H          1.67822        4.42975       -1.47591
C          1.84016        3.89861        0.61669
H          2.01731        4.91554        0.95221
C          1.79336        2.84831        1.52056
H          1.92257        3.02152        2.58541
