41
id_65_cb.log	Energy: -1008476.5078541
C          0.03894       -2.04311        0.22775
H          0.26135       -3.07396        0.48220
C          1.08244       -1.11986        0.06578
C          0.78407        0.23369       -0.18738
C         -0.56208        0.58532       -0.45891
C         -1.62252       -0.31907       -0.28016
C         -1.25602       -1.62565        0.11899
F         -2.23908       -2.50706        0.40847
N         -2.93675        0.07384       -0.48516
C         -3.52983        1.05079        0.45458
H         -3.22998        0.80768        1.48331
H         -3.20561        2.07205        0.23744
C         -5.03405        0.86778        0.25024
H         -5.37678        1.48053       -0.59133
H         -5.60890        1.14334        1.13894
C         -5.17270       -0.61948       -0.10381
C         -3.98003       -0.81784       -1.03260
H         -4.23825       -0.48723       -2.04596
H         -3.65297       -1.85569       -1.09188
N         -5.08069       -1.52395        1.04945
H         -5.71892       -1.19448        1.77375
H         -4.14494       -1.45652        1.45252
Cl        -0.94476        2.09857       -1.23010
N          1.83911        1.14832       -0.19995
C          3.11333        0.68784       -0.18807
H          3.87062        1.46275       -0.23807
C          3.49025       -0.62492       -0.10220
C          2.47064       -1.61612        0.14284
O          2.69015       -2.81431        0.41223
C          4.96947       -0.93837       -0.19112
O          5.30743       -2.09138       -0.57261
O          5.77325       -0.00648        0.09789
C          1.66214        2.57386        0.06960
H          1.57891        3.18966       -0.81768
C          0.88975        2.97429        1.28356
H          0.25122        3.84630        1.19115
H          0.49807        2.17387        1.90506
C          2.38229        3.14906        1.25326
H          2.97618        2.47330        1.86117
H          2.78971        4.14730        1.13501
H         -6.11196       -0.82039       -0.62487
