44
id_671_cb.log	Energy: -837748.4721116
C          6.29829        0.01656        1.95381
H          6.49906       -0.32674        2.97218
H          6.33338        1.11022        1.95416
H          7.09473       -0.36412        1.30837
C          4.93613       -0.50464        1.54052
H          4.16005       -0.20064        2.24584
H          4.92550       -1.59384        1.47487
N          4.49173        0.01467        0.20190
H          3.59989       -0.46064       -0.03141
C          5.42519       -0.32811       -0.92464
H          4.96131        0.06859       -1.83020
H          6.35510        0.21686       -0.74977
C          5.64854       -1.82282       -1.04687
H          6.24905       -2.21834       -0.22356
H          6.18460       -2.01704       -1.97962
H          4.69500       -2.36067       -1.08403
C          4.20067        1.49011        0.22686
H          3.90217        1.75305        1.24376
H          5.12804        2.01337       -0.01709
C          3.10560        1.87463       -0.75801
H          3.31327        1.47870       -1.75628
H          3.09794        2.96328       -0.82891
N          1.76767        1.45890       -0.35527
H          1.16053        2.16372        0.04404
C          1.28016        0.22760       -0.60266
O          2.03543       -0.68087       -1.01824
C         -0.15781       -0.02369       -0.35559
C         -1.11991        0.99120       -0.28677
H         -0.84452        2.03334       -0.42868
C         -2.46095        0.70387       -0.06639
H         -3.16090        1.52984       -0.01428
C         -2.90602       -0.63099        0.09547
C         -1.91892       -1.64594        0.02554
H         -2.23540       -2.67763        0.15062
C         -0.58810       -1.35163       -0.19895
H          0.13955       -2.15661       -0.24814
N         -4.20001       -1.06406        0.30915
S         -5.41901       -0.04402        0.32757
O         -5.23022        1.13251        1.22371
O         -6.64159       -0.83150        0.62587
C         -5.65319        0.61809       -1.31661
H         -4.75406        1.15248       -1.62894
H         -6.50536        1.30053       -1.27996
H         -5.85745       -0.21653       -1.98944
