35
id_677_ca.log	Energy: -1190451.6068032
C         -5.29237        3.15210       -0.56194
H         -4.90398        3.63023       -1.46547
H         -5.06399        3.80876        0.28441
H         -6.37274        3.03147       -0.64162
C         -4.62282        1.83488       -0.35589
N         -3.28333        1.82180       -0.38048
C         -2.73073        0.62562       -0.17861
N         -3.38246       -0.51333        0.03561
C         -4.70369       -0.37378        0.03748
N         -5.38522        0.76070       -0.14983
O         -5.46664       -1.44082        0.24105
C         -4.82205       -2.70727        0.44865
H         -4.19115       -2.66950        1.33833
H         -4.22791       -2.97689       -0.42614
H         -5.63593       -3.41641        0.58896
N         -1.34722        0.63252       -0.20893
H         -0.94509        1.55287       -0.37148
C         -0.48727       -0.42985       -0.04214
O         -0.79656       -1.57939        0.20988
N          0.84503       -0.04234       -0.16980
H          1.08471        0.83243       -0.64068
S          2.04878       -1.21964       -0.15965
O          1.92906       -2.06065       -1.34631
O          2.03650       -1.87819        1.13987
C          3.48272       -0.18608       -0.34363
C          4.22354       -0.34827       -1.51466
H          3.89183       -1.05850       -2.26440
C          5.37972        0.40124       -1.70668
H          5.95695        0.27377       -2.61597
C          5.78489        1.30890       -0.73149
H          6.68518        1.89808       -0.87423
C          5.04394        1.47579        0.43750
H          5.35806        2.18422        1.19705
C          3.89040        0.72682        0.63813
Cl         2.99761        0.97648        2.10843
