35
id_68_cb.log	Energy: -767028.7703287
C         -2.40192       -2.68338        0.46399
H         -1.87877       -3.28752       -0.28744
H         -1.84544       -2.76234        1.40636
H         -3.39481       -3.10561        0.61440
C         -2.49199       -1.24817        0.03600
N         -1.48293       -0.48468       -0.18090
N         -0.24703       -1.01476        0.01005
H         -0.13473       -1.99044        0.28022
C          0.85555       -0.21274       -0.16689
O          0.77913        0.97307       -0.48191
N          2.03473       -0.88084        0.04852
H          1.97521       -1.85916        0.31617
C          3.33450       -0.37040       -0.03848
C          3.63270        0.95198       -0.39168
H          2.86770        1.67825       -0.62233
C          4.96816        1.31935       -0.44086
C          6.03013        0.47564       -0.16684
H          7.06198        0.80294       -0.21712
C          5.67626       -0.82048        0.17680
C          4.37324       -1.26982        0.24996
H          4.16775       -2.29966        0.52570
F          6.66660       -1.69556        0.45708
F          5.24975        2.59653       -0.78246
C         -3.82283       -0.61940       -0.18605
C         -4.08632        0.70330        0.20273
C         -5.32389        1.24736       -0.14045
H         -5.55435        2.27395        0.13256
C         -6.25824        0.46182       -0.80558
H         -7.23537        0.84952       -1.07369
C         -5.91416       -0.85175       -1.11156
H         -6.62075       -1.50384       -1.61774
N         -4.72477       -1.38500       -0.81831
C         -3.12555        1.54089        1.03011
O         -2.79375        2.65874        0.55289
O         -2.78406        1.08157        2.15259
