16
id_693_cb.log	Energy: -477287.9932815
C          0.45159        0.84255       -0.02142
H          0.43524        1.06523        1.05468
H          0.86706        1.71996       -0.52946
C          1.34319       -0.36963       -0.27881
H          1.27289       -0.63873       -1.34115
H          0.95752       -1.22781        0.28681
S          3.09862       -0.08046        0.18186
C         -0.99968        0.68647       -0.50273
C         -1.58024       -0.57387        0.11242
O         -1.99446       -0.65042        1.25577
O         -1.57973       -1.62145       -0.72293
H         -1.91972       -2.40992       -0.25484
N         -1.76588        1.87824       -0.15412
H         -1.77694        1.97272        0.86190
H         -2.73716        1.75651       -0.43925
H         -1.01137        0.56348       -1.58903
