45
id_645_ca.log	Energy: -554861.3342849
C         -3.09358        2.99070       -0.78578
H         -2.94482        3.57924       -1.69441
H         -2.57165        3.49260        0.03535
H         -4.16383        2.98691       -0.55584
C         -2.57183        1.56916       -0.97385
H         -1.49367        1.59019       -1.18284
H         -3.05998        1.10674       -1.83689
C         -2.81820        0.75198        0.28564
H         -3.87784        0.52806        0.43791
H         -2.44408        1.28735        1.16272
N         -2.10008       -0.56565        0.24949
C         -2.72215       -1.55042       -0.70396
H         -3.52557       -2.04385       -0.15241
H         -3.15958       -0.97926       -1.52433
C         -1.68765       -2.53095       -1.23811
H         -1.21072       -3.07059       -0.41169
H         -2.23777       -3.27558       -1.82169
C         -0.63000       -1.86764       -2.11925
H         -1.09835       -1.34165       -2.95778
H          0.05189       -2.61984       -2.52542
H         -0.01105       -1.14484       -1.57129
C         -1.92921       -1.15507        1.62302
H         -2.85571       -0.96282        2.16833
H         -1.81126       -2.23273        1.49699
C         -0.70310       -0.57293        2.32642
H         -0.86544        0.47974        2.57785
H         -0.59245       -1.11839        3.26872
C          0.53054       -0.72491        1.46732
C          1.05851       -1.99117        1.17304
H          0.61759       -2.87063        1.63557
C          2.13413       -2.15191        0.30262
H          2.53082       -3.14139        0.09133
C          2.72156       -1.04676       -0.31835
C          2.19941        0.20547       -0.02488
C          1.12349        0.37268        0.84972
C          0.83699        1.84772        0.94202
H          0.99033        2.25145        1.94899
H         -0.17394        2.13174        0.62723
C          1.86143        2.46837       -0.00244
O          2.00044        3.65620       -0.26198
N          2.61645        1.44994       -0.51293
H          3.37574        1.59029       -1.16962
O          3.77217       -1.11712       -1.18921
H          4.02705       -2.04762       -1.30919
H         -1.15298       -0.36379       -0.10309
