40
id_698_cb.log	Energy: -706583.8750697
C         -0.23309        3.24228        0.59791
H          0.23718        4.20960        0.39737
H         -1.08521        3.40207        1.26627
H          0.49371        2.60128        1.10554
C         -0.69256        2.61742       -0.70978
H          0.13579        2.49254       -1.40644
H         -1.45608        3.23087       -1.19097
N         -1.30021        1.29156       -0.48734
C         -2.62520        1.19821       -0.24907
H         -3.16987        2.13387       -0.32432
C         -3.29733        0.03887        0.05192
C         -2.55312       -1.19408        0.18672
O         -3.03978       -2.30238        0.50464
C         -1.11298       -1.06349       -0.05064
C         -0.51141        0.16116       -0.37257
N          0.80530        0.31748       -0.57087
C          1.61378       -0.72922       -0.48899
C          1.07065       -2.01602       -0.21307
C         -0.26064       -2.18393        0.01362
H         -0.66247       -3.17295        0.21209
F          1.88365       -3.09364       -0.24087
N          2.96354       -0.56057       -0.75717
C          3.93855       -1.13509        0.18428
H          3.63219       -2.12511        0.51406
H          4.89141       -1.23595       -0.34485
C          4.11131       -0.24694        1.40645
H          3.17379       -0.13129        1.95593
H          4.88395       -0.63503        2.07105
N          4.53074        1.12426        0.97187
H          4.61970        1.73434        1.79195
H          5.46173        1.07157        0.53787
C          3.56399        1.72651       -0.00323
H          3.97179        2.68573       -0.32372
H          2.62735        1.88073        0.53503
C          3.39262        0.77651       -1.17779
H          2.67186        1.19707       -1.87782
H          4.34896        0.65684       -1.69775
C         -4.79856        0.14075        0.22154
O         -5.49601       -0.87921       -0.02916
O         -5.25924        1.26157        0.58294
