42
id_682_ca.log	Energy: -720397.5341456
C          0.19183       -2.11953       -0.37567
H          0.51147       -3.14138       -0.55221
C          1.14630       -1.10685       -0.16155
C          0.69345        0.20957        0.02650
C         -0.68534        0.49899        0.04279
H         -1.01027        1.51405        0.22544
C         -1.62684       -0.50062       -0.16180
C         -1.13779       -1.81048       -0.38414
F         -2.03371       -2.79014       -0.64746
N         -3.01368       -0.26552       -0.20470
C         -3.76526       -0.98330        0.84091
H         -3.54176       -0.54441        1.82664
H         -3.47536       -2.03304        0.86276
C         -5.25348       -0.91487        0.57353
H         -5.51386       -1.37224       -0.38271
H         -5.81623       -1.38843        1.37800
N         -5.67819        0.51763        0.49869
H         -6.67892        0.57487        0.27949
H         -5.54580        0.96073        1.41715
C         -4.89041        1.26538       -0.53061
H         -5.14141        0.82775       -1.49841
H         -5.20771        2.30764       -0.50027
C         -3.41075        1.14236       -0.22659
H         -3.19112        1.63657        0.73434
H         -2.86453        1.66525       -1.01490
N          1.62933        1.22175        0.21601
C          2.94168        0.91729        0.26710
H          3.60210        1.75761        0.44908
C          3.46631       -0.34352        0.11822
C          2.57653       -1.45179       -0.13974
O          2.93992       -2.63001       -0.35086
C          4.96818       -0.47728        0.25078
O          5.65947        0.55164       -0.00158
O          5.43821       -1.58477        0.62886
C          1.19135        2.58771        0.43882
H          0.79575        2.75246        1.43704
C          0.56305        3.33776       -0.69605
H         -0.27152        3.98806       -0.45543
H          0.49330        2.81694       -1.64634
C          1.94009        3.70344       -0.21800
H          2.07030        4.61001        0.36243
H          2.77258        3.44141       -0.86318
