48
id_691_ca.log	Energy: -879037.1888980
C          6.92172        0.17011        0.05200
H          7.16299        1.22363       -0.08991
H          7.12159       -0.39516       -0.85916
H          7.48366       -0.24272        0.88978
N          5.47003        0.05545        0.35733
H          5.28316        0.59398        1.21442
C          5.07152       -1.36390        0.61708
H          5.33302       -1.93011       -0.28087
H          5.66011       -1.72012        1.46425
C          3.58985       -1.44438        0.91894
H          3.36464       -0.88974        1.84392
H          3.33686       -2.49138        1.08128
N          2.80503       -0.89135       -0.19764
C          3.15742        0.51282       -0.39974
H          2.59056        0.91687       -1.24195
H          2.92949        1.11711        0.49384
C          4.63023        0.63720       -0.73647
H          4.91374        1.68528       -0.84509
H          4.88302        0.08865       -1.64733
C          1.42981       -1.17131       -0.12812
C          0.45030       -0.19008       -0.05966
H          0.73623        0.85201        0.00052
C         -0.91572       -0.53224       -0.05395
C         -1.31979       -1.87689       -0.07227
C         -0.32588       -2.87238       -0.14121
H         -0.60630       -3.91971       -0.18530
C          0.99107       -2.51695       -0.18221
F          1.92498       -3.48723       -0.31251
C         -2.73686       -2.27021       -0.02277
O         -3.05061       -3.47961       -0.01185
C         -3.67643       -1.17225        0.04323
C         -3.20220        0.11435        0.06488
H         -3.89171        0.95074        0.11437
N         -1.89549        0.45687        0.00311
C         -1.54815        1.85495       -0.00668
C         -1.73513        2.60929        1.14827
H         -2.12394        2.13812        2.04619
C         -1.42473        3.96778        1.14084
H         -1.56184        4.58738        2.02074
C         -0.92542        4.51700       -0.02885
C         -0.72836        3.78397       -1.18997
H         -0.33977        4.26640       -2.08066
C         -1.05133        2.43051       -1.17495
H         -0.91656        1.82276       -2.06507
F         -0.61676        5.83355       -0.04130
C         -5.18161       -1.34431        0.06836
O         -5.85304       -0.41543        0.60249
O         -5.67285       -2.37698       -0.46185
