12
id_685_cb.log	Energy: -145482.3572120
C         -2.44735       -0.20709       -0.07476
H         -2.44552       -1.15277        0.47663
H         -2.86470       -0.39023       -1.07218
H         -3.13206        0.48382        0.43168
C         -1.06537        0.37247       -0.16501
H         -0.97270        1.32099       -0.69971
C          0.03801       -0.17500        0.35454
H         -0.03679       -1.13160        0.88063
C          1.42736        0.40892        0.24737
H          1.76777        0.64734        1.27771
H          1.33380        1.38876       -0.26547
O          2.32928       -0.44526       -0.40026
