23
id_618_cb.log	Energy: -654796.7373358
C         -3.62195        2.11940       -0.16336
H         -4.28797        2.14811       -1.03135
H         -2.86992        2.90393       -0.25352
H         -4.23097        2.29971        0.72839
C         -3.00879        0.74234       -0.06236
O         -3.76717       -0.25145        0.00969
N         -1.65897        0.72485       -0.05703
S         -0.96242       -0.74358        0.05791
O         -1.23069       -1.39887        1.36281
O         -1.22614       -1.59397       -1.12971
C          0.75809       -0.32705        0.02679
C          1.41475       -0.01229        1.21703
H          0.88355       -0.05246        2.16367
C          2.75455        0.34714        1.18922
H          3.27441        0.58864        2.11256
C          3.45485        0.39945       -0.02973
C          2.77664        0.07766       -1.21901
H          3.31341        0.10976       -2.16339
C          1.43644       -0.28152       -1.19113
H          0.92188       -0.53113       -2.11452
N          4.77417        0.81597       -0.06383
H          5.30463        0.50980       -0.87255
H          5.28773        0.69866        0.80315
