71
id_651_cb.log	Energy: -917101.0486610
C         -5.11453       -1.66892       -1.17287
H         -5.54914       -2.27648       -1.97242
H         -5.37874       -0.62730       -1.36922
H         -5.58534       -1.97482       -0.23075
C         -3.60268       -1.89450       -1.12986
H         -3.16091       -1.47006       -2.03996
C         -3.29805       -3.39166       -1.08756
H         -2.22489       -3.59512       -1.13607
H         -3.77733       -3.89073       -1.93484
H         -3.69156       -3.84332       -0.16844
C         -2.90410       -1.12888        0.04787
C         -3.21938        0.38763       -0.00754
H         -2.89616        0.75143       -0.98851
H         -4.30397        0.52722        0.03968
C         -2.57622        1.20332        1.11063
H         -1.49642        1.01149        1.15354
H         -2.98381        0.88096        2.07688
C         -2.84407        2.69960        0.97622
H         -2.38748        3.21600        1.83856
H         -3.92372        2.88123        1.05034
N         -2.39659        3.28079       -0.29500
C         -2.57237        4.72647       -0.24648
H         -3.63130        4.96327       -0.10246
H         -2.24525        5.17281       -1.19043
H         -2.00968        5.20192        0.57438
C         -1.01715        2.92704       -0.62821
H         -0.95910        1.83919       -0.73171
H         -0.79462        3.34323       -1.61826
C          0.06973        3.38865        0.36870
H          0.34631        4.42803        0.16092
H         -0.32853        3.35986        1.38879
C          1.28147        2.49603        0.29518
C          2.18689        2.58127       -0.75641
H          2.05360        3.33711       -1.52624
C          3.28131        1.71164       -0.83360
H          3.97888        1.79834       -1.65936
C          3.47936        0.74906        0.14689
C          2.55668        0.64081        1.20914
C          1.47289        1.50628        1.27337
H          0.76595        1.43419        2.09377
O          2.82073       -0.34159        2.11581
C          1.92048       -0.47170        3.20691
H          2.27268       -1.32611        3.78549
H          0.89973       -0.66119        2.85771
H          1.93345        0.42804        3.83156
O          4.53102       -0.12206        0.18620
C          5.26155       -0.28267       -1.02128
H          5.95302       -1.10808       -0.84981
H          5.83077        0.62031       -1.26564
H          4.58724       -0.52777       -1.84968
C         -3.46693       -1.64160        1.31143
N         -3.94855       -2.02808        2.29196
C         -1.39435       -1.39290        0.00551
C         -0.73990       -2.18404        0.93716
H         -1.27663       -2.59887        1.78491
C          0.62038       -2.49309        0.79101
H          1.10455       -3.12497        1.52737
C          1.33612       -1.99954       -0.28681
C          0.68873       -1.15488       -1.21898
C         -0.66113       -0.87249       -1.07758
H         -1.15731       -0.25726       -1.82041
O          1.47983       -0.69333       -2.22553
C          0.89478        0.22438       -3.13911
H          0.49206        1.09770       -2.61393
H          0.09975       -0.25494       -3.72029
H          1.69904        0.53707       -3.80531
O          2.64360       -2.25883       -0.54990
C          3.32809       -3.11941        0.34975
H          4.34758       -3.19755       -0.02885
H          2.86451       -4.11169        0.36606
H          3.34179       -2.70106        1.36059
