41
id_675_cb.log	Energy: -1323049.1103534
C          0.40424       -1.01196        2.17306
H          0.58498       -0.03411        1.71554
H          1.07100       -1.11444        3.03438
H          0.64662       -1.79793        1.45078
C         -1.02969       -1.12475        2.63749
H         -1.22282       -2.06022        3.16973
H         -1.31675       -0.28500        3.27532
O         -1.86427       -1.10418        1.45548
C         -3.15130       -0.84792        1.62396
O         -3.70225       -0.78333        2.70833
C         -3.89041       -0.71582        0.32602
C         -5.00346       -1.53737        0.14553
H         -5.28905       -2.22071        0.93996
C         -5.72929       -1.49202       -1.04364
H         -6.58615       -2.14503       -1.17554
C         -5.35886       -0.60778       -2.05333
H         -5.92502       -0.56322       -2.97820
C         -4.26639        0.24030       -1.87242
H         -3.99144        0.95596       -2.64065
C         -3.53502        0.17981       -0.69115
S         -2.19434        1.35091       -0.47972
O         -2.48583        2.49489       -1.37312
O         -2.17033        1.69810        0.96074
N         -0.94194        0.47737       -0.97900
C          0.28920        0.96659       -0.69518
O          0.58163        2.05597       -0.18574
N          1.26674        0.03600       -1.08481
H          0.89178       -0.83229       -1.45319
C          2.58510       -0.05435       -0.69836
N          3.18579        0.98264       -0.11143
C          4.45728        0.81170        0.22309
C          5.17126       -0.37078       -0.02169
H          6.21074       -0.48627        0.25541
C          4.42647       -1.34834       -0.64246
N          3.15360       -1.23520       -0.98965
Cl         5.18370       -2.87466       -1.01513
O          5.11859        1.80550        0.82212
C          4.41036        3.02688        1.07935
H          4.07225        3.47486        0.14302
H          5.13519        3.67469        1.56983
H          3.55852        2.84201        1.73658
