47
id_600_ca.log	Energy: -555627.0340191
C          0.17389       -0.94290       -1.94643
H         -0.86873       -1.09912       -2.24325
H          0.21000        0.01067       -1.40377
H          0.77666       -0.83703       -2.85540
C          0.66422       -2.11914       -1.10315
H          0.00767       -2.26479       -0.23841
H          0.60667       -3.04043       -1.69263
C          2.11596       -1.99059       -0.66014
H          2.75591       -1.81363       -1.52663
H          2.47087       -2.88222       -0.13623
N          2.32254       -0.84211        0.28964
H          1.78016       -0.04489       -0.07522
C          3.75914       -0.39977        0.36826
H          3.80439        0.33080        1.18052
H          4.33159       -1.28521        0.65720
C          4.28101        0.21956       -0.92096
H          5.28754        0.58136       -0.68472
H          4.40315       -0.54140       -1.69765
C          3.42753        1.37592       -1.43639
H          3.92332        1.86834       -2.27784
H          2.44628        1.03881       -1.79459
H          3.26574        2.12443       -0.65219
C          1.78081       -1.14269        1.66277
H          2.59055       -1.61023        2.22749
H          0.97423       -1.86755        1.54580
C          1.25666        0.12110        2.34336
H          2.07881        0.80913        2.56408
H          0.82730       -0.19385        3.30026
C          0.22152        0.81408        1.48681
C          0.51231        2.02256        0.85310
H          1.47035        2.50603        1.02829
C         -0.41495        2.62213       -0.00139
H         -0.19301        3.56575       -0.49324
C         -1.63239        2.00109       -0.24087
C         -1.93907        0.77594        0.37844
C         -1.01579        0.20156        1.24855
H         -1.25887       -0.73294        1.74271
N         -3.19829        0.21188        0.08787
H         -3.89862        0.85725       -0.26290
C         -3.50399       -1.11147        0.03246
O         -2.68887       -2.00131        0.29863
C         -4.91613       -1.44118       -0.37077
H         -4.88149       -2.09240       -1.24865
H         -5.38470       -2.00039        0.44423
H         -5.51905       -0.55959       -0.59533
O         -2.58810        2.52293       -1.07188
H         -2.28505        3.37457       -1.43046
