46
id_600_cb.log	Energy: -555336.6199799
C          0.12738       -1.01366       -1.91256
H         -0.92009       -1.16667       -2.19409
H          0.18343       -0.03457       -1.41976
H          0.72540       -0.96735       -2.82970
C          0.60320       -2.15178       -1.01095
H         -0.04549       -2.23433       -0.13179
H          0.52020       -3.10315       -1.54727
C          2.06203       -2.02585       -0.59136
H          2.69298       -1.89562       -1.47267
H          2.41130       -2.90011       -0.03536
N          2.29654       -0.84264        0.30634
H          1.74516       -0.05489       -0.06892
C          3.73615       -0.40771        0.33302
H          3.80664        0.35151        1.11670
H          4.31100       -1.28573        0.63957
C          4.22999        0.16115       -0.98986
H          5.24888        0.51299       -0.79476
H          4.31743       -0.62557       -1.74540
C          3.38088        1.31560       -1.51663
H          3.85689        1.76956       -2.39062
H          2.38190        0.98585       -1.82958
H          3.25917        2.09323       -0.75391
C          1.78604       -1.08367        1.70242
H          2.60581       -1.53362        2.26749
H          0.97325       -1.80788        1.63172
C          1.28014        0.21340        2.33382
H          2.11451        0.89958        2.51480
H          0.86840       -0.05891        3.31232
C          0.24238        0.88515        1.46342
C          0.51635        2.08493        0.80368
H          1.47410        2.57604        0.97059
C         -0.41339        2.67039       -0.05804
H         -0.18432        3.61066       -0.55480
C         -1.66263        2.06777       -0.32386
C         -1.91031        0.81832        0.34122
C         -0.99419        0.26189        1.22397
H         -1.22922       -0.67190        1.72469
N         -3.16062        0.24520        0.02199
H         -3.76676        0.88957       -0.48027
C         -3.52811       -1.05311        0.06497
O         -2.80032       -1.95290        0.51582
C         -4.90280       -1.36823       -0.46581
H         -4.80375       -2.10559       -1.26774
H         -5.49047       -1.82329        0.33690
H         -5.42995       -0.49046       -0.84442
O         -2.56173        2.57855       -1.12040
