46
id_623_ca.log	Energy: -848841.0564114
C          5.55658        0.44312       -0.23236
H          6.17567       -0.36804        0.16479
H          5.52018        0.36215       -1.32363
H          6.02428        1.39556        0.02876
C          4.15442        0.39736        0.36330
C          3.27650        1.49405       -0.22873
H          2.28643        1.52474        0.23364
H          3.16308        1.36297       -1.31054
H          3.75976        2.45779       -0.04719
C          4.19589        0.44983        1.88340
H          4.68508        1.37977        2.18528
H          3.19143        0.43817        2.31601
H          4.77090       -0.38997        2.28744
N          3.57668       -0.94850       -0.05521
H          4.25445       -1.68301        0.18668
C          2.24088       -1.32353        0.49620
H          2.38096       -1.78204        1.47500
H          1.64889       -0.41334        0.59595
C          1.56506       -2.27503       -0.47971
C          0.14958       -2.60005       -0.03944
H         -0.34629       -3.20859       -0.80128
H          0.13656       -3.13215        0.91709
O         -0.52603       -1.34660        0.09186
C         -1.85842       -1.36172        0.14476
C         -2.60192       -0.10508        0.15699
N         -3.89021       -0.29291        0.24193
S         -4.17059       -1.93074        0.30801
N         -2.58525       -2.43089        0.21041
N         -2.00170        1.14294        0.16738
C         -1.03935        1.40197       -0.92375
H         -1.57387        1.46014       -1.88344
H         -0.30573        0.59743       -0.98167
C         -0.33461        2.71971       -0.66216
H          0.24114        2.65775        0.27295
H          0.34595        2.94970       -1.48535
O         -1.26630        3.78753       -0.57649
C         -2.17419        3.55429        0.49051
H         -1.62431        3.51984        1.44203
H         -2.86686        4.39834        0.51162
C         -2.94347        2.26062        0.29140
H         -3.57189        2.33506       -0.60874
H         -3.59519        2.08628        1.15012
O          1.56853       -1.60019       -1.72959
H          1.38094       -2.24740       -2.42855
H          2.12896       -3.21371       -0.54232
H          3.49084       -0.94920       -1.08311
