36
id_68_ca.log	Energy: -767310.0486244
C         -2.45684       -2.77816        0.39271
H         -1.97633       -3.35652       -0.40571
H         -1.86673       -2.91283        1.30761
H         -3.45389       -3.18290        0.56039
C         -2.52324       -1.32516        0.03323
N         -1.50486       -0.57054       -0.17139
N         -0.27210       -1.10769       -0.03213
H         -0.15155       -2.09805        0.17561
C          0.82194       -0.28083       -0.16942
O          0.72018        0.92606       -0.37645
N          2.01053       -0.95100       -0.04502
H          1.96749       -1.95060        0.13425
C          3.30192       -0.41113       -0.08332
C          3.57530        0.93613       -0.35142
H          2.79763        1.65889       -0.54840
C          4.90303        1.33342       -0.36184
C          5.97930        0.49569       -0.12837
H          7.00455        0.84630       -0.14606
C          5.64968       -0.82653        0.12877
C          4.35553       -1.30615        0.15961
H          4.16926       -2.35484        0.37022
F          6.65533       -1.69667        0.36550
F          5.16129        2.63455       -0.62087
C         -3.83211       -0.64025       -0.12893
C         -3.97673        0.73237        0.13630
C         -5.18534        1.35164       -0.17280
H         -5.31051        2.41550        0.00899
C         -6.22466        0.58212       -0.68174
H         -7.18638        1.02132       -0.92252
C         -6.00632       -0.78046       -0.85982
H         -6.80085       -1.41972       -1.23429
N         -4.84042       -1.38176       -0.60219
C         -2.90631        1.57343        0.75284
O         -2.50065        2.60773        0.25866
O         -2.51146        1.13044        1.95087
H         -1.80993        1.71886        2.29400
