66
id_631_ca.log	Energy: -1086190.4494869
C          3.96093        0.40348       -0.34968
H          4.77688        1.05552       -0.05484
C          3.94398       -0.92861        0.03500
H          4.75866       -1.33779        0.62280
C          2.85991       -1.73304       -0.30996
C          1.82011       -1.22308       -1.07786
C          1.87348        0.09971       -1.52622
H          1.05737        0.46411       -2.13998
C          2.91574        0.92692       -1.11893
O          2.97872        2.26872       -1.37195
C          1.87947        2.90210       -2.04243
H          2.26411        3.89213       -2.29508
H          1.65478        2.37224       -2.97346
C          0.63062        3.04167       -1.17709
H         -0.07460        3.66107       -1.74177
H          0.12965        2.08166       -1.01816
C          0.86440        3.74759        0.14859
H         -0.08177        3.99827        0.63159
H          1.44664        4.66142        0.01185
N          1.62470        2.91428        1.14370
H          2.53633        2.65699        0.74212
C          0.91653        1.68440        1.62656
H         -0.07412        2.00705        1.95910
H          0.80802        1.00648        0.77636
C          1.69847        1.04087        2.75908
H          1.78532        1.74945        3.59017
H          2.71039        0.78793        2.41994
C          1.01692       -0.21800        3.26570
H         -0.03414       -0.01010        3.50978
H          1.51929       -0.55835        4.17679
O          1.10773       -1.22536        2.25883
H          0.83888       -2.06819        2.65854
C          0.52234       -1.93225       -1.36717
O          0.15341       -2.15061       -2.52395
N         -0.20913       -2.18183       -0.26742
H          0.16178       -1.82648        0.61456
C         -1.63855       -2.45545       -0.33074
H         -1.84421       -2.93408       -1.29183
H         -1.89051       -3.16719        0.46286
C         -2.49020       -1.18884       -0.17492
C         -2.16030       -0.15538       -1.26748
H         -1.10422        0.14184       -1.18419
H         -2.29867       -0.60797       -2.25900
C         -3.05192        1.08641       -1.11772
H         -2.80249        1.80845       -1.90477
C         -4.52679        0.67376       -1.23805
H         -5.17157        1.55729       -1.14605
H         -4.71269        0.23148       -2.22544
C         -4.86853       -0.34158       -0.13671
H         -5.91976       -0.64007       -0.22321
C         -3.97362       -1.58003       -0.29229
H         -4.14972       -2.05211       -1.26878
H         -4.21824       -2.32222        0.48033
C         -4.62328        0.29398        1.24066
H         -5.26917        1.17230        1.36791
H         -4.87919       -0.42083        2.03355
C         -3.14829        0.70591        1.36245
H         -2.96804        1.15563        2.34666
C         -2.81180        1.72158        0.25988
H         -1.76310        2.03889        0.34772
H         -3.43575        2.61764        0.37353
C         -2.25737       -0.53515        1.20074
H         -2.47243       -1.26402        1.99554
H         -1.20222       -0.24439        1.30066
Cl         2.83232       -3.39183        0.23994
H          1.82756        3.50597        1.95920
