24
id_618_ca.log	Energy: -655080.1481596
C          3.53612        2.20115        0.00131
H          4.62593        2.19734        0.00081
H          3.16503        2.72418        0.88780
H          3.16419        2.72555       -0.88401
C          3.04004        0.78548        0.00049
O          3.76123       -0.20409       -0.00017
N          1.66674        0.65746        0.00052
H          1.06508        1.48087        0.00119
S          0.90569       -0.85346       -0.00047
O          1.24471       -1.52910       -1.25331
O          1.24460       -1.53081        1.25148
C         -0.77509       -0.38165       -0.00021
C         -1.43132       -0.18030       -1.21954
H         -0.91123       -0.33986       -2.15955
C         -2.75617        0.21509       -1.21696
H         -3.28188        0.36742       -2.15517
C         -3.44098        0.41904        0.00020
C         -2.75646        0.21284        1.21715
H         -3.28241        0.36344        2.15551
C         -1.43161       -0.18255        1.21932
H         -0.91174       -0.34386        2.15916
N         -4.73740        0.85642        0.00044
H         -5.27056        0.72945        0.85290
H         -5.27032        0.73105       -0.85240
