39
id_697_cb.log	Energy: -706294.6801083
C         -0.21019        3.24645        0.59786
H          0.54270        2.61222        1.07513
H         -1.04441        3.38626        1.29282
H          0.23864        4.22318        0.39340
C         -0.69861        2.62825       -0.70247
H          0.11446        2.51097       -1.41841
H         -1.47429        3.24307       -1.16200
N         -1.29823        1.29962       -0.47701
C         -2.62276        1.19769       -0.24112
H         -3.17327        2.13001       -0.31428
C         -3.28780        0.03295        0.05515
C         -2.53474       -1.19582        0.18506
O         -3.01714       -2.30960        0.49674
C         -1.09779       -1.05475       -0.04815
C         -0.50077        0.17354       -0.36449
N          0.81383        0.34246       -0.55736
C          1.63868       -0.69653       -0.47452
C          1.09417       -1.99184       -0.21363
C         -0.23498       -2.17003        0.00725
H         -0.62975       -3.16469        0.19132
F          1.90583       -3.07159       -0.26113
N          2.97896       -0.51746       -0.72975
C          3.42069        0.82534       -1.13309
H          4.34421        0.68989       -1.70646
H          2.67064        1.27269       -1.78451
C          3.69931        1.71684        0.06900
H          2.75924        1.88912        0.61617
H          4.07277        2.68386       -0.27912
N          4.71403        1.08289        0.91942
H          4.85667        1.67296        1.73716
C          4.22169       -0.21991        1.37566
H          4.97010       -0.68231        2.02499
H          3.28302       -0.12530        1.94906
C          3.96795       -1.12882        0.18114
H          3.62508       -2.10306        0.52124
H          4.89340       -1.26925       -0.38676
C         -4.78931        0.12560        0.22278
O         -5.25798        1.24339        0.58463
O         -5.48175       -0.89774       -0.02952
