77
id_655_cb.log	Energy: -1564696.4404054
C          1.01459       -1.52864        2.20832
H          1.38647       -1.17159        1.24190
H          1.03451       -2.62209        2.20116
H          1.69053       -1.17955        2.99319
C         -0.42950       -1.08486        2.44769
C         -0.88414       -1.63685        3.79990
H         -0.24228       -1.23931        4.59119
H         -0.79910       -2.72841        3.79746
H         -1.91693       -1.36772        4.03153
C         -0.61564        0.44278        2.40675
C          0.51475        1.27187        2.35024
H          1.50414        0.83208        2.28954
C          0.41697        2.66021        2.35773
H          1.31728        3.26450        2.29737
C         -0.83576        3.25901        2.44618
H         -0.93440        4.34038        2.46552
C         -1.96550        2.45189        2.50323
H         -2.94782        2.91619        2.56053
C         -1.88880        1.05407        2.46178
C         -3.21405        0.30963        2.44522
H         -3.05709       -0.76615        2.40926
H         -3.75201        0.52846        3.37638
C         -4.14206        0.68486        1.27418
H         -4.49261        1.71929        1.36658
H         -5.02750        0.04293        1.35092
C         -3.49979        0.48010       -0.11132
C         -2.62901        1.63574       -0.55704
C         -3.16805        2.91930       -0.72531
H         -4.23204        3.07963       -0.56952
C         -2.35291        3.98316       -1.09139
H         -2.77809        4.97407       -1.21782
C         -0.98840        3.78297       -1.29299
H         -0.34816        4.61638       -1.56975
C         -0.42663        2.51145       -1.13071
C         -1.26937        1.44413       -0.77729
H         -0.85367        0.44981       -0.63864
C          1.02344        2.35339       -1.29898
H          1.53157        3.22265       -1.71276
C          1.73229        1.26986       -0.94391
H          1.23941        0.41477       -0.48553
C          3.18664        1.11791       -1.07300
C          3.98747        2.06409       -1.78219
H          3.52443        2.91751       -2.26376
C          5.33681        1.87458       -1.85710
H          5.97431        2.57429       -2.39050
C          5.91934        0.74046       -1.23347
C          7.30914        0.47050       -1.26441
H          7.96785        1.16051       -1.78371
C          7.82066       -0.64373       -0.64882
H          8.88341       -0.85810       -0.66681
C          6.93622       -1.52210        0.01843
C          5.58570       -1.30252        0.07461
H          4.91697       -1.98336        0.59025
C          5.04662       -0.15230       -0.55863
N          3.70038        0.04580       -0.48996
Cl         7.61050       -2.93726        0.79518
S         -4.84682        0.16485       -1.32663
C         -3.91517       -0.69296       -2.63839
H         -4.60881       -0.73422       -3.48549
H         -3.06238       -0.07222       -2.93708
C         -3.44861       -2.09178       -2.28541
C         -2.42272       -2.67901       -3.22102
H         -2.50402       -3.73587       -3.45458
H         -2.08047       -2.05288       -4.03951
C         -2.02901       -2.28729       -1.82649
H         -1.41317       -1.39884       -1.71497
H         -1.83400       -3.07470       -1.10458
C         -4.51316       -3.03943       -1.76509
H         -4.11361       -4.06181       -1.76970
H         -5.39511       -3.02773       -2.41240
C         -4.99927       -2.80232       -0.35446
O         -6.15727       -2.90325        0.00090
O         -4.00680       -2.56548        0.51526
H         -4.40023       -2.44493        1.40156
O         -1.24242       -1.73041        1.45232
H         -0.91795       -1.44239        0.58244
H         -2.89806       -0.43235       -0.08088
