41
id_684_ca.log	Energy: -1372339.4638576
C          2.52047        3.74416       -1.91475
H          3.21347        4.58474       -2.01056
H          1.71201        4.03504       -1.23812
H          2.10239        3.52443       -2.90091
C          3.27151        2.55480       -1.37227
H          3.67876        2.73942       -0.37554
H          4.06934        2.22455       -2.04093
O          2.30580        1.46967       -1.26114
C          2.72268        0.33449       -0.76815
N          3.94620        0.06999       -0.41112
C          4.19359       -1.14630        0.10610
C          3.30372       -2.15893        0.30891
H          3.57505       -3.11036        0.74666
C          1.98481       -1.85764       -0.08629
N          1.74243       -0.61979       -0.64354
N          0.43566       -0.48427       -0.95926
C         -0.01481       -1.65706       -0.56629
N          0.84208       -2.54033       -0.03578
S         -1.77613       -1.94237       -0.61499
O         -2.28408       -1.31631       -1.82369
O         -1.99166       -3.35320       -0.34323
N         -2.38808       -1.10733        0.68787
H         -1.96587       -1.44739        1.55739
C         -2.45438        0.31667        0.59873
C         -1.42154        1.15507        1.06333
C         -1.53086        2.53965        0.93034
H         -0.73271        3.17452        1.29811
C         -2.65871        3.10192        0.34080
H         -2.74115        4.17902        0.24076
C         -3.69051        2.28713       -0.10988
H         -4.58219        2.71519       -0.55615
C         -3.58621        0.90498        0.02538
Cl        -4.92223       -0.07767       -0.49611
C         -0.22135        0.58205        1.74455
O         -0.20144       -0.49902        2.30990
O          0.83285        1.38929        1.68680
C          1.98210        0.99991        2.46192
H          2.75127        1.73185        2.22210
H          2.30696       -0.00899        2.19661
H          1.73199        1.03753        3.52429
F          5.47041       -1.32644        0.44658
