54
id_650_cb.log	Energy: -664999.7413208
C          2.83937        3.37678        0.25345
H          2.46731        4.05769        1.02478
H          2.09702        3.32835       -0.55212
H          3.76295        3.79894       -0.15807
C          3.08038        1.98887        0.83196
H          3.81501        2.07669        1.65136
C          1.78654        1.41693        1.40315
H          1.34117        2.11676        2.11821
H          1.94334        0.46606        1.92107
H          1.07245        1.24490        0.58882
N          3.58998        1.11964       -0.23952
H          4.32780        1.62877       -0.72233
C          4.15155       -0.14394        0.23702
H          5.23380       -0.08268        0.41348
H          3.69185       -0.41774        1.19047
C          3.89163       -1.28219       -0.74436
C          2.41291       -1.49668       -1.01487
H          2.27552       -2.37110       -1.66490
H          1.99442       -0.61598       -1.51370
O          1.75578       -1.70964        0.23035
C          0.39099       -1.70594        0.22949
C         -0.38888       -1.73461       -0.92918
H          0.07039       -1.76355       -1.91057
C         -1.77907       -1.72665       -0.81857
H         -2.38058       -1.73682       -1.72378
C         -2.40978       -1.69020        0.42330
C         -1.61375       -1.66663        1.57262
H         -2.08609       -1.62923        2.55149
C         -0.22741       -1.67685        1.48417
H          0.39391       -1.65308        2.37434
C         -3.91998       -1.70473        0.51651
H         -4.23886       -1.42636        1.53011
H         -4.29095       -2.71701        0.32015
O         -4.54719       -0.87094       -0.44826
C         -4.83812        0.44046        0.01007
H         -5.38691        0.92168       -0.80488
H         -5.49289        0.39607        0.89173
C         -3.61602        1.26671        0.35533
H         -3.04421        0.79249        1.16612
H         -3.95422        2.24792        0.71709
O         -2.80995        1.39611       -0.80049
C         -1.44538        1.70836       -0.51515
H         -1.05662        0.92364        0.15470
C         -0.70199        1.66170       -1.83780
H         -0.87645        0.70868       -2.34552
H          0.37464        1.77649       -1.67246
H         -1.03967        2.47383       -2.49116
C         -1.30818        3.06772        0.15959
H         -0.25064        3.32845        0.27048
H         -1.76404        3.07868        1.15420
H         -1.79001        3.83641       -0.45511
O          4.48601       -2.44154       -0.17235
H          4.39419       -3.16650       -0.81078
H          4.36050       -1.04647       -1.71094
