44
id_621_ca.log	Energy: -614344.8299000
C          4.39001       -1.46844       -0.20991
H          4.89478       -1.29245        0.74005
H          5.09391       -1.37987       -1.03693
H          3.92608       -2.45336       -0.22530
N          3.34010       -0.42706       -0.39364
C          2.51374       -0.69945       -1.61769
H          3.21039       -0.81332       -2.44960
H          2.01216       -1.65565       -1.44713
C          1.53090        0.43319       -1.85892
H          2.07335        1.33760       -2.15959
H          0.87329        0.14536       -2.68528
C          0.70075        0.74732       -0.60527
C         -0.12836       -0.42596       -0.16193
C          0.27888       -1.47803        0.63941
C         -0.69920       -2.41839        0.97390
H         -0.44455       -3.27007        1.59845
C         -2.02371       -2.26531        0.54745
H         -2.75512       -3.01373        0.83082
C         -2.43258       -1.13682       -0.17725
C         -1.44299       -0.21181       -0.50022
O         -1.64157        1.01661       -1.08576
C         -0.41098        1.78133       -0.90187
C         -0.61991        2.80224        0.23967
C         -0.22823        2.27579        1.60159
H         -0.82297        2.62023        2.44404
C          0.85069        1.51214        1.77102
H          1.17023        1.18849        2.75942
C          1.64648        1.07483        0.56830
C          2.48867       -0.18870        0.84330
C          1.67015       -1.43564        1.23396
H          2.23248       -2.34931        1.01628
H          1.57109       -1.40918        2.32471
O         -1.94231        3.30619        0.21098
H         -2.52536        2.53009        0.14626
O         -3.70831       -0.84742       -0.56151
C         -4.71334       -1.78196       -0.18876
H         -4.77081       -1.88194        0.90009
H         -4.52231       -2.76197       -0.63815
H         -5.65185       -1.38088       -0.57035
H         -0.25055        2.31171       -1.84192
H          0.03158        3.65557        0.01234
H          2.33674        1.87940        0.27232
H          3.21242        0.02253        1.63355
H          3.83607        0.45913       -0.55891
