42
id_683_cb.log	Energy: -720397.5341456
C         -0.19183       -2.11953       -0.37567
H         -0.51147       -3.14138       -0.55221
C         -1.14630       -1.10685       -0.16155
C         -0.69345        0.20957        0.02651
C          0.68534        0.49898        0.04280
H          1.01027        1.51405        0.22545
C          1.62683       -0.50063       -0.16180
C          1.13779       -1.81048       -0.38414
F          2.03371       -2.79014       -0.64746
N          3.01368       -0.26552       -0.20470
C          3.41075        1.14235       -0.22659
H          2.86452        1.66525       -1.01489
H          3.19114        1.63656        0.73435
C          4.89041        1.26538       -0.53062
H          5.20770        2.30763       -0.50029
H          5.14140        0.82773       -1.49842
N          5.67819        0.51764        0.49869
H          6.67892        0.57488        0.27949
H          5.54580        0.96075        1.41715
C          5.25348       -0.91486        0.57354
H          5.51387       -1.37224       -0.38270
H          5.81623       -1.38841        1.37801
C          3.76526       -0.98330        0.84090
H          3.54176       -0.54443        1.82664
H          3.47537       -2.03305        0.86275
N         -1.62932        1.22175        0.21602
C         -2.94168        0.91729        0.26710
H         -3.60210        1.75761        0.44909
C         -3.46631       -0.34352        0.11822
C         -2.57653       -1.45179       -0.13974
O         -2.93993       -2.63001       -0.35087
C         -4.96818       -0.47728        0.25078
O         -5.65947        0.55164       -0.00160
O         -5.43821       -1.58476        0.62887
C         -1.19135        2.58771        0.43882
H         -0.79575        2.75248        1.43704
C         -0.56304        3.33775       -0.69605
H          0.27154        3.98805       -0.45543
H         -0.49329        2.81693       -1.64634
C         -1.94008        3.70344       -0.21801
H         -2.77257        3.44141       -0.86321
H         -2.07030        4.61002        0.36241
