42
id_676_cb.log	Energy: -813691.8565958
C         -4.88346       -1.26015       -1.19551
H         -4.50706       -1.91921       -1.97291
C         -6.25118       -1.21121       -0.93477
H         -6.95407       -1.82095       -1.49428
C         -6.73341       -0.36673        0.05591
C         -5.84073        0.43504        0.78964
C         -4.48314        0.38254        0.53394
H         -3.82124        1.01650        1.11860
C         -3.98393       -0.47124       -0.46740
C         -2.55952       -0.56354       -0.78174
H         -2.30732       -1.22451       -1.61086
C         -1.55308        0.07397       -0.15914
H         -1.69887        0.74416        0.68190
C         -0.16907       -0.11852       -0.61383
O          0.18792       -0.81021       -1.55545
O          0.69491        0.58119        0.14430
C          2.09393        0.52619       -0.20067
C          2.75335       -0.69405        0.42900
H          2.31271       -1.61150        0.02440
H          2.57454       -0.67093        1.50893
C          4.26860       -0.69119        0.15884
C          4.89088        0.62622        0.65561
H          4.81097        0.66539        1.74620
H          5.95487        0.65127        0.39374
C          4.19979        1.85746        0.08268
C          2.69618        1.81523        0.33998
O          2.13424        2.95352       -0.29833
H          1.16762        2.91423       -0.20320
O          4.45628        1.90278       -1.32601
H          3.85801        2.56143       -1.72071
C          4.92663       -1.87160        0.91835
O          4.72681       -1.90699        2.16417
O          5.61286       -2.69818        0.26470
O          4.51037       -0.86359       -1.23687
H          4.41944        0.00975       -1.66268
O         -6.41908        1.23927        1.73748
H         -5.74308        1.76817        2.19497
O         -8.07377       -0.31695        0.30894
H         -8.24539        0.32207        1.02408
H          2.17251        0.51076       -1.29223
H          4.60480        2.76331        0.55019
H          2.52621        1.86277        1.42493
