76
id_667_cb.log	Energy: -1002749.2338188
C         -2.27729        4.44602        1.05533
H         -1.69910        5.37493        1.09525
H         -2.80222        4.32608        2.00967
H         -3.02379        4.54446        0.26262
C         -1.34801        3.24658        0.82734
C         -0.29088        3.24390        1.94031
H         -0.77195        3.22760        2.92472
H          0.30643        4.16014        1.87386
H          0.38768        2.38991        1.87407
C         -2.18847        1.96939        0.79334
C         -3.17519        1.83411       -0.19985
H         -3.28868        2.61285       -0.95206
C         -4.01634        0.72952       -0.23705
H         -4.77501        0.65508       -1.01352
C         -3.89352       -0.29040        0.71629
C         -2.90243       -0.17575        1.68807
H         -2.78713       -0.96215        2.43172
C         -2.05718        0.93993        1.72658
H         -1.30189        0.99731        2.50486
C         -4.80743       -1.49587        0.67648
C         -4.67898       -2.32815       -0.59723
H         -5.39506       -3.15270       -0.51480
H         -4.98451       -1.71814       -1.45731
C         -3.27922       -2.91003       -0.82707
H         -3.36943       -3.79200       -1.47280
H         -2.86640       -3.25006        0.13045
C         -2.32986       -1.92174       -1.49632
H         -1.96878       -1.15912       -0.80736
H         -2.81909       -1.42436       -2.33892
N         -1.12853       -2.61301       -2.07844
H         -1.48712       -3.31472       -2.73732
C         -0.29445       -3.35351       -1.06878
H         -0.94703       -4.05133       -0.54383
H          0.43105       -3.92925       -1.65000
C          0.40866       -2.39314       -0.12449
H         -0.32134       -1.84797        0.48789
H          1.00727       -3.00442        0.55838
C          1.29945       -1.41265       -0.90025
H          2.06194       -2.01098       -1.41654
C          0.45835       -0.68817       -1.95845
H          1.08304       -0.05586       -2.59728
H         -0.26911       -0.02499       -1.47567
C         -0.25987       -1.67164       -2.86904
H          0.45229       -2.30147       -3.40953
H         -0.90759       -1.16739       -3.58829
C          2.01545       -0.42175        0.05743
C          3.00295        0.51231       -0.66229
C          3.32327        1.73784       -0.06388
H          2.83463        2.02305        0.86441
C          4.25394        2.59769       -0.64345
H          4.48384        3.54424       -0.16218
C          4.88720        2.24526       -1.83622
H          5.61123        2.91464       -2.29176
C          4.58070        1.02590       -2.43735
H          5.06479        0.73826       -3.36649
C          3.64765        0.16582       -1.85427
H          3.43047       -0.77762       -2.34715
C          2.80342       -1.21202        1.11017
C          2.50136       -1.11486        2.46979
H          1.70031       -0.46173        2.79863
C          3.22084       -1.85621        3.41172
H          2.97229       -1.76680        4.46572
C          4.24696       -2.70587        3.00578
H          4.80515       -3.28195        3.73816
C          4.55351       -2.80856        1.64662
H          5.35280       -3.46574        1.31559
C          3.83888       -2.06673        0.70944
H          4.09436       -2.15373       -0.34442
O          1.04122        0.34485        0.74587
H          0.69930        1.07037        0.16321
O         -6.18261       -1.09976        0.74590
H         -6.30757       -0.57439        1.55306
C         -0.60343        3.35852       -0.52878
O          0.20736        2.42359       -0.81375
O         -0.82286        4.34918       -1.26963
H         -4.57134       -2.13634        1.53741
