16
id_617_cb.log	Energy: -441058.3328398
N         -2.76879        0.57088        0.00001
H         -3.32812       -0.28088        0.00001
C         -1.51931        0.29174        0.00000
N         -0.52327        1.23235       -0.00000
H         -0.75917        2.21842       -0.00002
C          0.79462        0.77423       -0.00001
C          0.89399       -0.56709       -0.00001
S         -0.72146       -1.30472       -0.00000
C          2.10420       -1.44124        0.00001
H          2.12896       -2.08763        0.88396
H          3.01206       -0.83354        0.00001
H          2.12898       -2.08765       -0.88392
C          1.88195        1.79673        0.00000
H          1.80418        2.43755       -0.88444
H          2.86389        1.32302       -0.00005
H          1.80423        2.43747        0.88451
