43
id_683_ca.log	Energy: -720677.4611247
C         -0.16109       -2.12789       -0.34685
H         -0.48087       -3.15014       -0.52094
C         -1.11334       -1.11490       -0.13330
C         -0.66481        0.20265        0.05359
C          0.71089        0.49524        0.06366
H          1.03623        1.51029        0.24490
C          1.65437       -0.50363       -0.14545
C          1.16797       -1.81538       -0.36159
F          2.06342       -2.79169       -0.62850
N          3.03682       -0.26296       -0.20262
C          3.43220        1.14523       -0.23816
H          2.86926        1.66420       -1.01716
H          3.23191        1.64241        0.72525
C          4.90496        1.26703       -0.57506
H          5.22314        2.30918       -0.55238
H          5.13323        0.82931       -1.54840
N          5.71642        0.51913        0.43545
H          6.71146        0.57442        0.19105
H          5.60867        0.96369        1.35649
C          5.29263       -0.91286        0.52356
H          5.52951       -1.37273       -0.43759
H          5.87419       -1.38490        1.31546
C          3.81139       -0.97947        0.82706
H          3.61181       -0.53637        1.81581
H          3.52064       -2.02859        0.85990
N         -1.60223        1.21960        0.25266
C         -2.91077        0.92958        0.29095
H         -3.55476        1.77670        0.50799
C         -3.42583       -0.33594        0.11429
C         -2.53990       -1.45977       -0.10980
O         -2.92473       -2.62983       -0.28861
C         -4.88435       -0.54997        0.22112
O         -5.70235        0.43119       -0.21520
O         -5.39398       -1.54969        0.69220
C         -1.15470        2.58205        0.49246
H         -0.75021        2.72510        1.49002
C         -0.53079        3.34225       -0.63753
H          0.31184        3.98084       -0.39402
H         -0.47403        2.83424       -1.59556
C         -1.90055        3.71195       -0.14295
H         -2.73928        3.46713       -0.78693
H         -2.01947        4.60989        0.45296
H         -5.23226        1.10966       -0.73190
