10
id_63_ca.log	Energy: -466766.9154451
C          0.77848       -0.68428        0.49356
H          0.68728       -1.70970        0.13727
H          0.94091       -0.68289        1.57324
C         -0.46026        0.13835        0.19656
O         -0.49212        1.36367        0.26456
N         -1.52289       -0.61640       -0.14726
H         -1.54144       -1.62324       -0.00942
O         -2.76883       -0.02720       -0.14774
H         -2.97185        0.18116       -1.07824
Cl         2.21903        0.04313       -0.27455
