43
id_676_ca.log	Energy: -813973.1378157
C         -4.88807       -1.26712       -1.19143
H         -4.50217       -1.92453       -1.96556
C         -6.25576       -1.23993       -0.92781
H         -6.94944       -1.86493       -1.48194
C         -6.74980       -0.39800        0.05924
C         -5.86905        0.42254        0.78677
C         -4.51142        0.39239        0.52769
H         -3.85880        1.04069        1.10705
C         -4.00046       -0.45854       -0.47021
C         -2.57568       -0.53044       -0.78634
H         -2.31447       -1.19492       -1.60984
C         -1.57763        0.12699       -0.17045
H         -1.73114        0.80195        0.66535
C         -0.19268       -0.05622       -0.62351
O          0.17191       -0.74772       -1.56172
O          0.66784        0.65070        0.13556
C          2.06559        0.58801       -0.20097
C          2.70441       -0.64413        0.42813
H          2.25928       -1.55535        0.01627
H          2.52843       -0.62485        1.50948
C          4.22231       -0.64813        0.15739
C          4.86083        0.64924        0.68437
H          4.76265        0.67677        1.77360
H          5.92742        0.65986        0.43611
C          4.18851        1.88701        0.10438
C          2.68155        1.86731        0.34808
O          2.14533        3.01261       -0.29677
H          1.17859        3.00008       -0.19584
O          4.46150        1.92102       -1.30050
H          3.87482        2.58211       -1.70870
C          4.81345       -1.82955        0.92002
O          4.80476       -1.89701        2.13439
O          5.31596       -2.78491        0.14059
H          5.65450       -3.50851        0.70430
O          4.48645       -0.83266       -1.22424
H          4.44013        0.04580       -1.65011
O         -6.45937        1.22047        1.73243
H         -5.79265        1.76525        2.18485
O         -8.08991       -0.36951        0.31552
H         -8.27058        0.27255        1.02569
H          2.15544        0.57282       -1.29164
H          4.60351        2.78583        0.57545
H          2.50209        1.91689        1.43123
