72
id_651_ca.log	Energy: -917393.9160777
C         -5.07825       -1.84382       -1.08718
H         -5.50305       -2.48036       -1.86910
H         -5.39111       -0.81729       -1.29169
H         -5.51493       -2.15655       -0.13103
C         -3.55772       -2.00441       -1.07561
H         -3.15377       -1.57201       -1.99939
C         -3.18665       -3.48595       -1.02244
H         -2.10703       -3.64302       -1.09399
H         -3.66316       -4.01523       -1.85264
H         -3.53918       -3.94258       -0.08935
C         -2.86727       -1.19599        0.07816
C         -3.25701        0.30231        0.01144
H         -2.98435        0.65555       -0.99065
H         -4.34384        0.39493        0.09347
C         -2.61495        1.15275        1.10605
H         -1.52968        1.00044        1.14267
H         -3.00264        0.83963        2.08248
C         -2.94396        2.63162        0.98138
H         -2.52001        3.20054        1.81006
H         -4.02381        2.79811        0.96917
N         -2.42940        3.26362       -0.29048
C         -2.61947        4.74194       -0.24667
H         -3.67699        4.94552       -0.07823
H         -2.29707        5.16083       -1.19952
H         -2.02460        5.14595        0.57238
C         -1.01812        2.88292       -0.64470
H         -1.01127        1.80069       -0.78258
H         -0.81287        3.34815       -1.61170
C          0.00178        3.30707        0.41184
H          0.26771        4.35859        0.26704
H         -0.42474        3.21301        1.41496
C          1.22732        2.42833        0.32427
C          2.11323        2.52541       -0.74121
H          1.94746        3.26388       -1.52132
C          3.23370        1.68966       -0.81593
H          3.91699        1.78329       -1.65240
C          3.47549        0.75522        0.18205
C          2.56802        0.63561        1.25730
C          1.45619        1.46462        1.31872
H          0.76028        1.38445        2.14759
O          2.87428       -0.32098        2.17662
C          1.99044       -0.46348        3.27998
H          2.38372       -1.28902        3.87336
H          0.97532       -0.70254        2.94512
H          1.97226        0.44989        3.88423
O          4.55326       -0.07856        0.22685
C          5.30660       -0.20315       -0.97093
H          6.03219       -0.99656       -0.79060
H          5.83696        0.72589       -1.20501
H          4.65523       -0.47707       -1.80844
C         -3.37880       -1.71629        1.36038
N         -3.82090       -2.10945        2.35648
C         -1.34838       -1.39344        0.00297
C         -0.64099       -2.14622        0.92773
H         -1.13853       -2.56581        1.79673
C          0.72247       -2.41771        0.74350
H          1.24634       -3.02520        1.47316
C          1.38945       -1.92259       -0.36479
C          0.69046       -1.10445       -1.28363
C         -0.66348       -0.86285       -1.10666
H         -1.20024       -0.27851       -1.84678
O          1.43710       -0.63063       -2.31762
C          0.80652        0.27958       -3.20762
H          0.40462        1.14283       -2.66504
H          0.00260       -0.21119       -3.76640
H          1.58308        0.61033       -3.89739
O          2.69145       -2.15739       -0.67080
C          3.41748       -3.01303        0.20149
H          4.42272       -3.08058       -0.21528
H          2.96327       -4.00931        0.23221
H          3.46538       -2.59583        1.21147
H         -3.01463        2.91554       -1.05934
