49
id_630_cb.log	Energy: -990744.1015983
C         -1.06390        2.07526       -1.18135
H         -0.85906        1.79296       -2.20924
C         -0.20063        2.93599       -0.51354
H          0.68205        3.34903       -0.99032
C         -0.48918        3.25963        0.80430
C         -1.60409        2.76837        1.46841
H         -1.78320        3.04951        2.50036
C         -2.46156        1.91667        0.78134
H         -3.32124        1.51312        1.30573
C         -2.19727        1.55638       -0.54548
C         -3.04933        0.58698       -1.30355
O         -2.64420        0.11868       -2.36369
C         -4.44917        0.24321       -0.83430
H         -5.11776        0.55851       -1.64362
H         -4.73415        0.80123        0.05946
C         -4.61172       -1.26141       -0.59107
H         -4.34218       -1.80612       -1.50225
H         -5.66299       -1.48514       -0.38511
C         -3.76285       -1.71569        0.59311
H         -4.10696       -1.18502        1.48938
H         -3.90531       -2.79511        0.78016
N         -2.35470       -1.38905        0.39817
C         -1.62961       -1.29352        1.66175
H         -2.14834       -0.56993        2.30048
H         -1.62980       -2.26125        2.19539
C         -0.19426       -0.82548        1.44030
H          0.34407       -0.80676        2.39442
H         -0.19890        0.19351        1.03463
C          0.55386       -1.73823        0.46137
C         -0.27731       -1.87029       -0.82332
H         -0.31436       -0.90384       -1.33871
H          0.20808       -2.58918       -1.49482
C         -1.70074       -2.32169       -0.51504
H         -2.27005       -2.36211       -1.44838
H         -1.69179       -3.34268       -0.09136
C          1.94583       -1.18418        0.17128
C          3.09413       -1.86281        0.58102
H          3.00307       -2.80467        1.11017
C          4.36489       -1.34872        0.32724
H          5.25167       -1.88492        0.64815
C          4.47937       -0.13747       -0.34049
C          3.35482        0.56715       -0.75767
H          3.45958        1.51477       -1.27565
C          2.09658        0.03558       -0.49900
H          1.22093        0.59110       -0.82261
Cl         6.07144        0.52004       -0.66274
O          0.64070       -3.00750        1.10582
H          0.95846       -3.65288        0.45180
F          0.34083        4.08498        1.46251
