14
id_688_ca.log	Energy: -452934.2945535
C         -0.98958        0.03331        0.98569
H         -1.58493        0.77955        1.51747
H         -0.90827       -0.84805        1.62363
C          0.41701        0.55145        0.72495
C          1.30028       -0.46205       -0.03038
O          1.84507       -0.06475       -1.08958
O          1.39112       -1.59473        0.50056
N          0.37597        1.82960       -0.04556
H          1.31637        2.23422       -0.11652
H         -0.24110        2.51928        0.39966
H          0.05622        1.67490       -1.00964
S         -1.88195       -0.50762       -0.51520
H         -2.30226        0.70943       -0.90594
H          0.88761        0.78496        1.68413
