41
id_659_cb.log	Energy: -836688.1378546
C         -6.67056       -1.90087        0.45202
H         -7.40333       -1.32567        1.02835
H         -6.47955       -2.82841        1.00164
H         -7.11686       -2.15544       -0.51260
C         -5.39957       -1.11462        0.27325
C         -4.62520       -0.76246        1.38827
H         -4.94907       -1.06553        2.38112
C         -3.45161       -0.03117        1.24429
H         -2.85936        0.23807        2.11410
C         -3.04535        0.35291       -0.03358
C         -3.79260        0.01865       -1.15737
H         -3.46579        0.32490       -2.14647
C         -4.96856       -0.71399       -0.99482
H         -5.55864       -0.97716       -1.86884
S         -1.52515        1.26117       -0.22429
O         -1.40267        2.14717        0.96276
O         -1.61368        1.99264       -1.51343
N         -0.45503        0.06320       -0.23743
C          0.85152        0.42947       -0.37607
O          1.30459        1.58834       -0.45769
N          1.68073       -0.67460       -0.45591
H          1.28663       -1.53077       -0.06069
N          3.05948       -0.50160       -0.25920
C          3.74062       -1.60157       -0.95159
H          3.58251       -1.44274       -2.02360
H          3.26664       -2.56427       -0.68959
C          5.23558       -1.70053       -0.64908
H          5.67507       -2.29285       -1.45923
H          5.38928       -2.28061        0.26939
C          5.98096       -0.36730       -0.50655
H          7.03423       -0.52636       -0.76497
H          5.59065        0.36972       -1.22116
C          5.91908        0.18253        0.92249
H          6.28893       -0.60003        1.60009
H          6.60870        1.02995        1.01993
C          4.53355        0.63163        1.38837
H          4.25212        1.55838        0.87129
H          4.58058        0.86715        2.45891
C          3.39932       -0.36865        1.17213
H          3.62810       -1.34991        1.62086
H          2.50618        0.01456        1.67409
