26
id_612_cb.log	Energy: -724102.2356242
C         -3.27561       -2.32410        0.41075
H         -3.76193       -3.25233        0.68463
C         -2.20634       -1.80638        1.12654
H         -1.81542       -2.32489        1.99977
N         -1.59840       -0.66209        0.80639
C         -2.06028        0.00096       -0.27780
N         -3.10110       -0.42491       -1.03968
C         -3.68343       -1.56551       -0.68334
H         -4.51649       -1.89058       -1.30282
N         -1.50141        1.17192       -0.70200
S         -0.24371        1.79237        0.06229
O         -0.47819        2.11282        1.49286
O          0.17476        2.96858       -0.74418
C          1.11058        0.63784        0.00176
C          1.44641        0.05841       -1.22347
H          0.86754        0.28481       -2.11536
C          2.51897       -0.81794       -1.30267
H          2.78127       -1.27494       -2.25332
C          3.27560       -1.12553       -0.15715
C          2.92466       -0.53256        1.06718
H          3.50160       -0.76781        1.95783
C          1.84753        0.34204        1.14602
H          1.57565        0.78587        2.09879
N          4.38443       -1.95387       -0.24930
H          4.65362       -2.40626        0.61819
H          4.36774       -2.60369       -1.02853
