21
id_607_ca.log	Energy: -355499.0588429
C          4.36193       -0.17469       -0.00004
H          5.43935       -0.31169       -0.00007
C          3.51387       -1.28625        0.00010
H          3.93237       -2.28862        0.00019
C          2.13319       -1.11797        0.00015
H          1.49178       -1.99470        0.00027
C          1.57222        0.17022        0.00004
C          2.43337        1.27753       -0.00009
H          2.00834        2.27854       -0.00017
C          3.81709        1.10858       -0.00014
H          4.46733        1.97860       -0.00025
C          0.12278        0.41374        0.00006
H         -0.17039        1.46279        0.00015
C         -0.83709       -0.52382       -0.00004
H         -0.60938       -1.58626       -0.00016
C         -2.25531       -0.19893       -0.00002
N         -3.21108       -1.12389       -0.00020
N         -4.29374       -0.37919       -0.00011
H         -5.23584       -0.76694       -0.00020
N         -4.07378        0.90892        0.00012
N         -2.77795        1.05385        0.00021
