52
id_649_cb.log	Energy: -698248.0784778
C         -4.67987        1.80832       -0.76645
H         -3.58983        1.79971       -0.64308
H         -5.02392        2.83262       -0.59713
H         -4.90185        1.54339       -1.80608
C         -5.34994        0.83478        0.19873
H         -5.09802        1.09833        1.23128
H         -6.43832        0.90045        0.10578
C         -4.92493       -0.61517       -0.05694
H         -5.40803       -1.28470        0.66260
H         -5.21920       -0.92973       -1.06290
C         -3.43090       -0.75060        0.13287
O         -2.88511       -0.42013        1.18662
N         -2.74015       -1.23652       -0.93700
H         -3.24511       -1.31704       -1.81296
C         -1.32771       -1.23181       -1.01344
C         -0.70173       -0.71659       -2.15131
H         -1.30384       -0.37381       -2.98810
C          0.67916       -0.61487       -2.20836
H          1.13861       -0.20210       -3.09792
C          1.46547       -1.01127       -1.11997
C          0.84745       -1.59549        0.00649
C         -0.54885       -1.69977        0.03372
H         -1.01554       -2.13207        0.90972
C          1.56744       -2.05722        1.24317
O          0.90632       -2.39345        2.21822
C          3.06847       -2.10955        1.30783
H          3.48490       -1.10210        1.21151
H          3.47223       -2.69948        0.48077
H          3.35573       -2.54705        2.26479
O          2.81712       -0.85990       -1.09724
C          3.44828        0.23759       -1.76895
H          4.45508       -0.12108       -1.99397
H          2.95231        0.47679       -2.71223
C          3.55869        1.48874       -0.90188
C          2.21558        2.10874       -0.47451
H          2.36413        3.17816       -0.28783
H          1.49776        2.01584       -1.30194
N          1.76242        1.51398        0.78319
H          1.49319        0.54748        0.60515
C          0.57453        2.15522        1.37388
H          0.87371        3.16784        1.67357
C         -0.60780        2.25231        0.40706
H         -0.39270        2.90424       -0.44492
H         -1.48882        2.64979        0.92244
H         -0.85893        1.25362        0.02583
C          0.17652        1.35690        2.60989
H         -0.66211        1.83397        3.12525
H          1.01230        1.26791        3.31014
H         -0.13925        0.34598        2.31854
O          4.35573        1.23309        0.24417
H          3.71422        1.21346        0.98465
H          4.08382        2.21885       -1.53146
