49
id_692_ca.log	Energy: -879320.2482099
C         -6.94171        0.12305        0.05474
H         -7.18973        1.17626       -0.07734
H         -7.50224       -0.30161        0.88752
H         -7.13619       -0.43472       -0.86220
N         -5.48975        0.01501        0.36147
H         -5.30777        0.54623        1.22417
C         -5.08186       -1.40419        0.60727
H         -5.66915       -1.77324        1.44987
H         -5.33802       -1.96310       -0.29677
C         -3.60032       -1.47764        0.91148
H         -3.34032       -2.52431        1.06393
H         -3.38066       -0.93044        1.84198
N         -2.81658       -0.90677       -0.19746
C         -3.17921        0.49665       -0.38824
H         -2.95578        1.09449        0.51062
H         -2.61560        0.91180       -1.22714
C         -4.65258        0.61290       -0.72542
H         -4.90004        0.07124       -1.64185
H         -4.94304        1.65997       -0.82486
C         -1.44200       -1.18029       -0.13553
C         -0.46631       -0.19238       -0.06593
H         -0.75721        0.84800       -0.00004
C          0.89764       -0.52881       -0.06591
C          1.30990       -1.86898       -0.09678
C          0.32538       -2.87052       -0.16888
H          0.61261       -3.91558       -0.22257
C         -0.99493       -2.52192       -0.19987
F         -1.92128       -3.49667       -0.33153
C          2.73014       -2.25219       -0.05659
O          3.06437       -3.44911       -0.08475
C          3.65490       -1.13778        0.02686
C          3.17492        0.15550        0.04496
H          3.85049        1.00251        0.09083
N          1.87370        0.47373       -0.00800
C          1.50235        1.86892       -0.00675
C          1.05203        2.45471       -1.18771
H          0.97544        1.86174       -2.09442
C          0.70054        3.80100       -1.19126
H          0.34728        4.29458       -2.09047
C          0.82001        4.51201       -0.00592
C          1.27018        3.94888        1.17731
H          1.34584        4.55212        2.07572
C          1.61262        2.59830        1.17299
H          1.96454        2.11462        2.07938
F          0.48159        5.82045       -0.00708
C          5.10952       -1.34676        0.07844
O          5.80556       -0.20159        0.23145
O          5.67525       -2.42435       -0.00390
H          6.75652       -0.42067        0.25115
