68
id_632_ca.log	Energy: -879605.5398427
C         -0.42074        5.12405       -0.23641
H         -1.01911        6.03120       -0.13130
H         -0.00983        5.09273       -1.25100
H          0.42755        5.19557        0.45515
C         -1.25397        3.90591        0.04756
C         -2.57991        4.01416        0.47318
H         -3.00886        5.00469        0.59420
C         -3.35643        2.89037        0.73240
H         -4.38689        2.99327        1.05686
C         -2.80653        1.61817        0.56946
C         -1.47559        1.48774        0.17923
H         -1.00887        0.51283        0.10162
C         -0.71300        2.61854       -0.10153
N          0.63306        2.47376       -0.50480
H          1.30025        3.15926       -0.16738
C          1.10732        1.48307       -1.31255
O          0.36717        0.66915       -1.87030
C          2.60867        1.42701       -1.45365
H          2.83184        1.17582       -2.49597
H          3.04847        2.40611       -1.23202
C          3.25343        0.36945       -0.52999
C          4.78167        0.46942       -0.69826
H          5.04167        0.29476       -1.75142
H          5.10738        1.48737       -0.44393
C          5.49559       -0.55046        0.19915
H          6.57930       -0.45759        0.06232
C          5.13269       -0.27448        1.66583
H          5.64637       -0.99030        2.32046
H          5.46675        0.73145        1.95148
C          3.61269       -0.39435        1.85121
H          3.35123       -0.19445        2.89683
C          2.90093        0.62459        0.94768
H          3.18986        1.64866        1.22458
H          1.81411        0.54182        1.09147
C          3.16294       -1.81215        1.46656
H          3.65126       -2.54912        2.11707
H          2.07809       -1.91406        1.61035
C          3.52371       -2.08623       -0.00131
H          3.19581       -3.09481       -0.27956
C          5.04347       -1.96685       -0.18435
H          5.31287       -2.17641       -1.22771
H          5.55573       -2.70740        0.44336
C          2.81093       -1.05976       -0.89573
H          1.72586       -1.15820       -0.76549
H          3.03444       -1.25416       -1.95387
C         -3.64212        0.42955        0.92570
O         -4.39552        0.47503        1.89889
N         -3.50647       -0.71355        0.18139
C         -3.18981       -0.72068       -1.25429
H         -4.12149       -0.61817       -1.82513
H         -2.52724        0.10287       -1.51600
C         -2.54335       -2.04759       -1.63532
C         -1.16589       -2.28038       -1.02306
H         -0.50327       -1.43125       -1.20255
H         -0.72611       -3.19193       -1.43044
N         -1.26926       -2.48601        0.46105
H         -1.48469       -1.59316        0.92040
C         -2.32300       -3.49283        0.81723
H         -1.95348       -4.46247        0.48090
H         -2.43458       -3.49077        1.90156
C         -3.63331       -3.16392        0.10993
C         -4.30379       -1.87615        0.58204
H         -4.40349       -1.88352        1.66765
H         -5.30513       -1.81362        0.13709
O         -3.41233       -3.12782       -1.29911
H         -2.42352       -2.07153       -2.72054
H         -4.31799       -3.99429        0.29515
H         -0.35976       -2.79863        0.82228
