42
id_629_ca.log	Energy: -792980.3036102
C         -5.25371       -0.56027        1.28408
H         -5.75532       -1.51207        1.11173
H         -5.95200        0.26741        1.16502
H         -4.80087       -0.53971        2.27588
N         -4.16690       -0.41091        0.27895
C         -3.46422        0.90483        0.42451
H         -4.22388        1.68520        0.35776
H         -3.02821        0.90556        1.42726
C         -2.40009        1.07139       -0.65406
H         -2.89815        1.11887       -1.63223
H         -1.91028        2.03157       -0.48727
C         -1.42216       -0.07923       -0.65263
C         -0.08750        0.08282       -0.56863
C          0.55756        1.42849       -0.47380
C          0.45074        2.35102       -1.51709
H         -0.12857        2.08868       -2.39837
C          1.08225        3.59029       -1.43541
H          0.99191        4.29775       -2.25365
C          1.83149        3.91215       -0.30690
H          2.32895        4.87430       -0.23624
C          1.94349        2.99468        0.73604
H          2.52110        3.24395        1.62203
C          1.31213        1.75332        0.66355
C          1.42454        0.76715        1.80450
H          0.42585        0.39031        2.06641
H          1.86089        1.23959        2.68642
C          2.28481       -0.43325        1.46266
O          3.24763       -0.74598        2.15295
C          1.91671       -1.22584        0.28673
C          0.86272       -1.05871       -0.59352
C          0.85377       -2.07904       -1.59481
H          0.13024       -2.11764       -2.40122
C          1.86907       -2.97927       -1.44426
H          2.08778       -3.83600       -2.06883
S          2.86910       -2.62236       -0.09774
C         -2.11371       -1.42064       -0.71012
H         -1.42352       -2.25307       -0.56710
H         -2.58521       -1.54462       -1.69454
C         -3.18906       -1.54285        0.36418
H         -2.76229       -1.49785        1.36967
H         -3.75663       -2.46767        0.25218
H         -4.59315       -0.43472       -0.65733
