43
id_644_cb.log	Energy: -554288.9435440
C          4.16244        2.54609       -0.46296
H          4.21549        3.26391       -1.28741
H          5.16817        2.13926       -0.30708
H          3.87946        3.09473        0.44290
C          3.16199        1.43172       -0.76145
H          3.45350        0.91932       -1.68541
H          2.16655        1.85999       -0.93463
C          3.07822        0.44393        0.39809
H          2.77077        0.99972        1.29259
H          4.08709        0.03683        0.61293
N          2.12165       -0.64700        0.20116
C          2.63221       -1.65669       -0.72898
H          3.12698       -1.13956       -1.55792
H          3.40493       -2.27791       -0.23589
C          1.54238       -2.55465       -1.31570
H          2.03794       -3.29227       -1.95927
H          1.04656       -3.12596       -0.52056
C          0.49600       -1.79100       -2.12432
H          0.97288       -1.18849       -2.90762
H         -0.08780       -1.11497       -1.48980
H         -0.20371       -2.48036       -2.60918
C          1.77051       -1.24884        1.49074
H          1.48816       -2.29341        1.32930
H          2.64942       -1.26285        2.16067
C          0.59830       -0.54157        2.17938
H          0.46907       -0.99503        3.17090
H          0.84424        0.51429        2.34571
C         -0.67722       -0.65363        1.37959
C         -1.30858       -1.89050        1.17148
H         -0.88951       -2.77969        1.64210
C         -2.45044       -2.02802        0.37858
H         -2.90293       -3.00960        0.24922
C         -3.06394       -0.92820       -0.28018
C         -2.40319        0.29421       -0.04024
C         -1.26471        0.44250        0.74969
C         -0.88126        1.90213        0.73477
H          0.10906        2.09619        0.30437
H         -0.90560        2.37562        1.72301
C         -1.94474        2.53775       -0.15040
O         -2.03898        3.73659       -0.44563
N         -2.77906        1.55557       -0.55961
H         -3.58290        1.71245       -1.15863
O         -4.13648       -1.01702       -1.03183
