51
id_633_cb.log	Energy: -1078113.6794225
C         -3.70726        1.58310        0.00781
H         -4.77656        1.39995       -0.01571
C         -3.22449        2.88890        0.00946
H         -3.91371        3.72638       -0.02238
C         -1.85320        3.11511        0.03140
C         -0.95026        2.04965        0.05427
C         -1.44224        0.74504        0.05468
H         -0.74933       -0.09075        0.09142
C         -2.81536        0.51420        0.02786
N         -3.31765       -0.82221        0.05805
C         -2.86534       -1.80047       -0.84779
O         -2.01178       -1.47421       -1.69337
N         -3.37725       -3.04631       -0.76832
C         -4.34261       -3.31813        0.12875
O         -4.84995       -4.45709        0.25371
C         -4.81732       -2.22229        0.98559
H         -5.61476       -2.39844        1.69986
N         -4.31661       -1.03929        0.94188
C          0.53792        2.25416        0.13816
O          1.04767        2.85911        1.09138
N          1.23476        1.71749       -0.87345
H          0.71530        1.19933       -1.57482
C          2.68748        1.59174       -0.87836
H          3.02876        1.74061       -1.90828
H          3.09424        2.40188       -0.26627
C          3.18412        0.23650       -0.36345
C          2.76865        0.00548        1.10091
H          1.67226        0.01029        1.18474
H          3.15024        0.82693        1.72412
C          3.31827       -1.33901        1.60322
H          3.01221       -1.48905        2.64584
C          2.76011       -2.47471        0.73163
H          1.66372       -2.49706        0.80194
H          3.13272       -3.44243        1.09370
C          3.18641       -2.26219       -0.72936
H          2.78552       -3.07065       -1.35290
C          2.63526       -0.91622       -1.22525
H          1.53680       -0.93119       -1.17814
H          2.91818       -0.75368       -2.27565
C          4.72019       -2.25061       -0.81883
H          5.12247       -3.21432       -0.47841
H          5.03358       -2.11356       -1.86276
C          5.27891       -1.11338        0.05032
H          6.37366       -1.09943       -0.01724
C          4.85206       -1.32977        1.51042
H          5.26078       -0.53013        2.14308
H          5.25547       -2.28169        1.88130
C          4.72117        0.22813       -0.44831
H          5.12494        1.05279        0.15660
H          5.03107        0.40136       -1.48899
Cl        -1.27662        4.76184       -0.02592
