13
id_688_cb.log	Energy: -452644.9142597
C         -0.99985       -0.26652        0.97031
H         -1.59097        0.29548        1.70286
H         -0.77373       -1.23885        1.41511
C          0.33285        0.45920        0.77694
C          1.34812       -0.34066       -0.05897
O          1.88245        0.24531       -1.03817
O          1.58964       -1.50907        0.33583
N          0.06709        1.75353        0.08812
H          0.91293        2.09850       -0.37810
H         -0.29741        2.46360        0.72984
H         -0.65432        1.55213       -0.63521
S         -1.92031       -0.44614       -0.60648
H          0.79539        0.69063        1.74144
