68
id_64_cb.log	Energy: -824453.6263185
C         -3.95214       -0.07241       -2.08645
H         -3.59277        0.96096       -2.02233
H         -4.95608       -0.04546       -2.52850
H         -3.30451       -0.61012       -2.78317
C         -4.00541       -0.74802       -0.71075
C         -5.21653       -0.21511        0.08712
H         -5.18415       -0.59566        1.11542
H         -6.13156       -0.61700       -0.36575
C         -5.36919        1.31873        0.11898
H         -5.50823        1.70326       -0.89509
H         -6.27108        1.55698        0.69395
C         -4.19594        2.04090        0.77810
O         -3.40222        2.70550        0.04223
O         -4.06637        1.91927        2.02984
C         -2.71299       -0.63822        0.11857
C         -2.71312       -1.57857        1.35801
H         -3.18757       -1.08980        2.21494
H         -3.29517       -2.48471        1.14715
C         -1.22985       -1.92134        1.65246
H         -1.01583       -2.97399        1.42709
H         -0.96259       -1.75502        2.70090
C         -0.45108       -1.00432        0.70530
C         -1.34592       -0.92501       -0.55141
C         -0.78906        0.18094       -1.47086
C          0.69264       -0.06148       -1.77986
H          0.76120       -0.93469       -2.43907
H          1.04442        0.79734       -2.36289
C          1.58896       -0.26001       -0.54378
C          1.00661       -1.33482        0.40549
C          1.83438       -1.48958        1.68395
C          3.32273       -1.66722        1.38052
H          3.88512       -1.64598        2.32500
H          3.45285       -2.67485        0.96655
C          3.90351       -0.63424        0.40382
C          3.07403       -0.55641       -0.90780
C          3.69123        0.53797       -1.80564
H          4.69254        0.19123       -2.10226
H          3.11743        0.63316       -2.73372
C          3.84186        1.90096       -1.13102
H          4.30082        2.61652       -1.82350
H          2.86352        2.30720       -0.83867
C          4.70668        1.75580        0.10859
C          4.09423        0.74287        1.06523
H          3.13984        1.14701        1.41761
H          4.74145        0.62923        1.94648
O          4.82508        3.04435        0.72371
H          5.35149        2.94493        1.53381
C          3.21324       -1.87776       -1.68335
H          4.27588       -2.11393       -1.81822
H          2.76832       -1.79669       -2.68143
H          2.74826       -2.73026       -1.18106
O          1.59001       -0.35121        2.52405
H          2.23889       -0.36499        3.24534
O         -0.88862        1.48779       -0.88954
H         -1.82356        1.71773       -0.71658
C         -1.39646       -2.25570       -1.31846
H         -0.40282       -2.62015       -1.59486
H         -1.97143       -2.14988       -2.24483
H         -1.87890       -3.03794       -0.72245
H         -4.18785       -1.82022       -0.88019
H         -2.63585        0.38116        0.50661
H         -0.46905        0.00377        1.14461
H         -1.33250        0.18315       -2.42392
H          1.56949        0.68546        0.01704
H          1.04517       -2.31617       -0.08686
H          1.48050       -2.38459        2.21734
H          4.90791       -0.98566        0.11843
H          5.70890        1.41534       -0.19573
