76
id_664_ca.log	Energy: -1002737.4260484
C          3.22915        4.05780        0.63353
H          4.10843        4.05183       -0.01818
H          3.55400        3.86087        1.65963
H          2.77085        5.05013        0.59680
C          2.22261        2.97760        0.21641
C          0.94665        3.11427        1.07192
H          1.20553        3.07633        2.13410
H          0.21971        2.32157        0.85885
H          0.47750        4.08328        0.87458
C          2.87937        1.60160        0.33025
C          2.62193        0.73909        1.40167
H          1.90350        1.01299        2.16845
C          3.26037       -0.49669        1.49110
H          3.02337       -1.16044        2.31978
C          4.16885       -0.90829        0.51171
C          4.45253       -0.03667       -0.54188
H          5.16254       -0.33450       -1.31042
C          3.81744        1.20115       -0.63027
H          4.05250        1.86022       -1.46507
C          4.74406       -2.31099        0.54157
C          3.66748       -3.35091        0.22419
H          2.84261       -3.19689        0.92894
H          4.08297       -4.34573        0.42335
C          3.16037       -3.27461       -1.22220
H          3.77006       -3.92563       -1.85903
H          3.29446       -2.26299       -1.62172
C          1.70147       -3.69841       -1.39918
H          1.59028       -4.75443       -1.12295
H          1.44478       -3.61777       -2.47287
N          0.74289       -2.93383       -0.59541
C         -0.61549       -3.40123       -0.88186
H         -0.84950       -3.24992       -1.95465
H         -0.65820       -4.47862       -0.69013
C         -1.66705       -2.68161       -0.03786
H         -2.65799       -3.06225       -0.31053
H         -1.49510       -2.93246        1.01799
C         -1.58417       -1.16511       -0.25708
H         -1.81588       -0.98774       -1.31545
C         -0.14547       -0.71927       -0.00472
H          0.11344       -0.87318        1.05099
H         -0.03051        0.35160       -0.20421
C          0.82750       -1.50066       -0.87561
H          0.61351       -1.30282       -1.94692
H          1.84206       -1.14921       -0.67628
C         -2.60081       -0.35783        0.59050
C         -2.51430        1.15281        0.32782
C         -2.16476        1.67608       -0.92280
H         -1.90499        1.01606       -1.74603
C         -2.12429        3.05496       -1.13465
H         -1.83666        3.43677       -2.11051
C         -2.43996        3.93679       -0.10179
H         -2.40250        5.00992       -0.26624
C         -2.79631        3.42577        1.14576
H         -3.04505        4.09941        1.96114
C         -2.83460        2.04719        1.35657
H         -3.11633        1.66409        2.33227
C         -4.03601       -0.81768        0.29075
C         -4.88214       -1.26696        1.30660
H         -4.53349       -1.28992        2.33435
C         -6.18311       -1.68864        1.01618
H         -6.82472       -2.03647        1.82105
C         -6.65515       -1.66383       -0.29350
H         -7.66558       -1.99177       -0.51970
C         -5.81697       -1.20927       -1.31469
H         -6.17335       -1.18058       -2.34056
C         -4.52168       -0.78933       -1.02407
H         -3.88724       -0.43206       -1.83186
O         -2.30317       -0.51789        1.97658
H         -2.30183       -1.46444        2.19379
O          5.25683       -2.63992        1.83522
H          5.93758       -1.98796        2.06863
C          1.77081        3.24450       -1.22143
O          1.86006        4.32558       -1.76943
O          1.17621        2.24183       -1.88932
H          1.18756        1.41246       -1.37507
H          5.55201       -2.37950       -0.20041
