48
id_689_ca.log	Energy: -879037.5087333
C          6.88903       -0.03187        0.09226
H          7.47816       -0.48134        0.89651
H          7.19812        1.01048       -0.02556
H          7.11355       -0.56946       -0.84537
N          5.47052       -0.09305        0.42496
C          5.06256       -1.48903        0.57465
H          5.29411       -2.06088       -0.34342
H          5.62430       -1.93871        1.39916
C          3.58006       -1.60119        0.87291
H          3.31116       -2.65239        0.96666
H          3.35093       -1.10044        1.82667
N          2.78916       -0.97056       -0.20380
C          3.19885        0.42525       -0.37641
H          2.96230        1.01635        0.52336
H          2.65535        0.85438       -1.22273
C          4.68880        0.49969       -0.65898
H          4.97413        1.55009       -0.77127
H          4.90403       -0.01212       -1.61540
C          1.41543       -1.20337       -0.13887
C          0.46900       -0.18375       -0.07124
H          0.79473        0.84617       -0.01200
C         -0.90521       -0.47224       -0.06197
C         -1.36154       -1.80106       -0.08567
C         -0.41110       -2.83719       -0.16190
H         -0.73281       -3.87209       -0.21637
C          0.91800       -2.53254       -0.19978
F          1.80492       -3.54040       -0.34752
C         -2.78177       -2.11445       -0.04015
O         -3.19598       -3.30368       -0.06301
C         -3.66783       -0.98318        0.03684
C         -3.15665        0.29585        0.04988
H         -3.81489        1.15806        0.09559
N         -1.84530        0.56391       -0.00348
C         -1.41802        1.94411       -0.00059
C         -1.43619        2.65552        1.19469
H         -1.76378        2.17152        2.10998
C         -1.03161        3.98861        1.20229
H         -1.03430        4.57906        2.11229
C         -0.61605        4.55158        0.00618
C         -0.58931        3.85752       -1.19467
H         -0.25854        4.35058       -2.10266
C         -1.00075        2.52822       -1.19393
H         -0.99455        1.94697       -2.11127
F         -0.21789        5.84298        0.00827
C         -5.13694       -1.13914        0.09065
O         -5.91665       -0.19903        0.15777
O         -5.59758       -2.39064        0.06044
H         -4.81680       -3.01891        0.00655
