43
id_606_ca.log	Energy: -1077174.8174131
C         -0.85204        3.47502       -1.74206
H         -0.37803        3.39408       -2.72421
H         -0.31696        4.23113       -1.15797
H         -1.88256        3.81431       -1.88001
C         -0.84708        2.13117       -1.02897
C         -1.59353        2.17608        0.30521
H         -1.58994        1.18267        0.77042
H         -2.62964        2.47387        0.11712
O         -1.05204        3.13914        1.20284
H         -0.21592        2.79334        1.55450
N          0.54517        1.71478       -0.82179
H          1.21972        2.46026       -0.68367
C          0.92781        0.45423       -0.60167
C          2.28240        0.11256       -0.26361
C          3.35843        1.01680       -0.11752
H          3.21468        2.08311       -0.27045
C          4.60954        0.56746        0.21633
C          4.87831       -0.84634        0.43687
O          5.97972       -1.31168        0.74291
N          3.78259       -1.66532        0.27590
H          3.93377       -2.66395        0.41767
C          2.52153       -1.25927       -0.06104
N          1.59245       -2.21356       -0.17472
C          0.38310       -1.76293       -0.51455
N          0.00002       -0.51121       -0.72601
S         -0.80904       -3.04886       -0.70701
C         -2.30717       -2.10389       -1.08513
H         -2.09831       -1.44627       -1.93159
H         -3.02302       -2.85864       -1.42976
C         -2.90118       -1.31660        0.06061
C         -2.55971       -1.46213        1.40816
H         -1.79232       -2.17744        1.68807
C         -3.18106       -0.69944        2.39677
H         -2.89563       -0.83046        3.43547
C         -4.16371        0.23431        2.06832
H         -4.65946        0.84397        2.81678
C         -4.50018        0.37908        0.73523
C         -3.87985       -0.37826       -0.24685
F         -4.24626       -0.18166       -1.53005
F         -5.42940        1.27628        0.35228
C          5.71124        1.46231        0.36519
N          6.61261        2.18321        0.48780
H         -1.33321        1.37424       -1.65221
