38
id_653_cb.log	Energy: -494547.8232857
C          3.07276        2.30372        0.30555
H          2.26755        2.62220        0.97811
H          2.81269        2.60997       -0.71295
H          3.98869        2.82440        0.60111
C          3.27037        0.79024        0.37996
C          3.63074        0.39406        1.81630
H          2.81367        0.64973        2.50122
H          4.53138        0.92317        2.14542
H          3.82438       -0.68074        1.89729
C          4.39249        0.38158       -0.57507
H          4.12990        0.64393       -1.60542
H          4.59573       -0.69312       -0.53290
H          5.31761        0.90319       -0.30892
N          2.00004        0.17613       -0.06751
H          1.24073        0.63246        0.44057
C          1.87264       -1.26542        0.14521
H          2.80491       -1.75209       -0.15608
H          1.66599       -1.54655        1.18710
C          0.75409       -1.78275       -0.77064
C         -0.60650       -1.28838       -0.30678
C         -1.21092       -1.86603        0.81147
H         -0.72384       -2.69650        1.31771
C         -2.43175       -1.39812        1.28942
H         -2.90521       -1.85060        2.15685
C         -3.05743       -0.33770        0.63969
C         -2.47645        0.26185       -0.48318
C         -1.25274       -0.22406       -0.93820
H         -0.79955        0.23375       -1.81374
C         -3.19416        1.40720       -1.15421
H         -4.15011        1.05793       -1.56750
H         -2.59004        1.78651       -1.98214
O         -3.41603        2.50528       -0.27314
H         -3.99985        2.17224        0.42867
O         -4.26554        0.16985        1.04974
H         -4.56001       -0.29525        1.85057
O          1.04954       -1.38252       -2.09863
H          1.45272       -0.49748       -1.98486
H          0.75986       -2.87816       -0.74823
