47
id_678_ca.log	Energy: -1117597.1393869
C         -0.69160        2.51869       -1.99062
H         -1.62706        2.47201       -2.55976
H          0.04271        1.84230       -2.43266
H         -0.30285        3.54308       -2.00105
O         -0.90827        2.08788       -0.65001
C         -1.85903        2.90268        0.02362
H         -1.46749        3.92105        0.14385
H         -2.77746        2.95168       -0.57620
C         -2.11595        2.31369        1.39095
H         -2.86781        2.89985        1.92708
H         -1.19796        2.29153        1.98030
O         -2.50398        0.93210        1.30679
C         -3.64067        0.60155        0.64035
C         -4.77024        1.41366        0.54312
H         -4.77929        2.39396        1.00739
C         -5.88799        0.95478       -0.15074
H         -6.76311        1.59435       -0.21367
C         -5.90177       -0.30046       -0.76069
H         -6.77898       -0.64157       -1.29944
C         -4.77830       -1.11543       -0.67795
H         -4.75937       -2.09393       -1.14693
C         -3.66060       -0.65691        0.01675
S         -2.27081       -1.73760        0.17709
O         -1.97290       -1.98850        1.58722
O         -2.47555       -2.90562       -0.67593
N         -1.04765       -0.78769       -0.49787
H         -1.26055        0.22264       -0.52429
C          0.26827       -1.14079       -0.19180
O          0.59074       -2.29590        0.01846
N          1.09590       -0.03909       -0.17463
H          0.64938        0.88079       -0.21691
C          2.47342       -0.00615       -0.08619
N          3.16469       -1.14603       -0.10130
C          4.47814       -0.97106       -0.01219
N          5.12345        0.19556        0.08189
C          4.31439        1.24681        0.07482
N          2.98095        1.22155       -0.00460
O          4.82373        2.47001        0.15351
C          6.24984        2.60911        0.24388
H          6.72788        2.18564       -0.64097
H          6.62087        2.12161        1.14692
H          6.42407        3.68252        0.29284
O          5.27620       -2.02996       -0.01379
C          4.67741       -3.33257       -0.10767
H          4.01268       -3.50459        0.74047
H          5.51491       -4.02752       -0.08250
H          4.12918       -3.42947       -1.04610
