25
id_686_cb.log	Energy: -1019498.4912895
C         -2.72774       -1.51454       -0.36988
H         -3.19223       -2.47391       -0.57276
C         -1.34322       -1.39284       -0.38991
H         -0.73408       -2.25736       -0.62053
C         -0.72067       -0.16508       -0.13190
C         -1.54223        0.94258        0.12507
C         -2.92840        0.84494        0.13890
H         -3.53692        1.72016        0.34130
C         -3.50687       -0.39436       -0.10292
Cl        -5.24741       -0.53720       -0.07730
Cl        -0.82149        2.50047        0.43654
N          0.66988        0.00080       -0.17012
H          1.07213        0.92274       -0.39013
C          1.59528       -0.92600        0.18976
O          1.29204       -2.05084        0.60618
C          3.03571       -0.52168        0.05139
C          3.96909       -1.22327        1.03486
H          4.81154       -0.63004        1.37166
H          3.48364       -1.84380        1.78007
C          3.94496       -1.67406       -0.37133
H          3.44091       -2.60675       -0.60018
H          4.76985       -1.39747       -1.01759
C          3.47929        0.86947       -0.38565
O          4.71444        1.05291       -0.52378
O          2.59803        1.76219       -0.57470
