30
id_634_cb.log	Energy: -350860.6135713
C         -0.72992       -2.53911       -0.14784
H         -1.38279       -3.28866       -0.60298
H         -0.46289       -2.89923        0.85231
H          0.19256       -2.47458       -0.73057
C         -1.42652       -1.20598       -0.07664
C         -2.81342       -1.12193        0.08203
H         -3.39079       -2.04074        0.14661
C         -3.45316        0.11152        0.15075
H         -4.53089        0.15799        0.27342
C         -2.71163        1.28783        0.05272
H         -3.20858        2.25324        0.09941
C         -1.32674        1.24540       -0.10934
C         -0.70806       -0.00973       -0.16927
O          0.66023       -0.04406       -0.36620
C          1.40962       -0.20631        0.84452
H          1.13524        0.58518        1.55367
H          1.17598       -1.18005        1.29223
C          2.88266       -0.12495        0.49209
C          3.24813        1.25183       -0.05885
H          2.70007        1.45184       -0.98584
H          4.31932        1.29971       -0.27956
H          3.01219        2.04448        0.65988
N          3.20787       -1.23192       -0.41704
H          4.18909       -1.14135       -0.67996
H          2.68849       -1.06777       -1.28058
C         -0.49853        2.49557       -0.23884
H          0.28261        2.54083        0.52805
H         -1.12721        3.38382       -0.14058
H          0.00460        2.53633       -1.21077
H          3.43149       -0.29003        1.42615
