40
id_608_cb.log	Energy: -682556.0946620
C         -3.29920       -4.36633       -0.75771
H         -3.28276       -4.77319       -1.77163
H         -4.21122       -4.72491       -0.25500
H         -2.43988       -4.77368       -0.21597
N         -3.19841       -2.91044       -0.80336
H         -3.98628       -2.56511       -1.35197
C         -3.34107       -2.34879        0.53847
H         -4.26526       -2.69464        1.03150
H         -2.50730       -2.71145        1.15015
C         -3.34340       -0.82614        0.52002
H         -3.52831       -0.44638        1.53187
H         -4.16052       -0.46373       -0.11579
C         -2.04524       -0.20951        0.00545
C         -2.13564        1.30209       -0.03342
C         -2.60859        1.93568       -1.18427
H         -2.86081        1.33828       -2.05768
C         -2.75314        3.32071       -1.21731
H         -3.12020        3.80421       -2.11749
C         -2.41853        4.08401       -0.09957
H         -2.52558        5.16401       -0.12551
C         -1.94147        3.45558        1.04950
H         -1.67626        4.04543        1.92171
C         -1.80270        2.06940        1.08423
H         -1.42840        1.58002        1.97924
O         -1.01955       -0.65160        0.90017
C          0.28228       -0.46818        0.55302
C          0.70822        0.11932       -0.64180
H         -0.00083        0.48968       -1.37215
C          2.07248        0.23991       -0.89215
H          2.40504        0.69733       -1.81840
C          3.00306       -0.21129        0.03715
C          2.57499       -0.79333        1.23229
H          3.29987       -1.14307        1.96053
C          1.22097       -0.91952        1.49000
H          0.86444       -1.36639        2.41206
C          4.46453       -0.12702       -0.26333
F          5.19973        0.05150        0.84759
F          4.75460        0.88374       -1.09887
F          4.93213       -1.24795       -0.84744
H         -1.83384       -0.59581       -0.99811
