49
id_690_ca.log	Energy: -879289.8290546
C          6.94842        0.18620        0.07949
H          7.51506       -0.25483        0.89901
H          7.18247        1.24553       -0.02290
H          7.14735       -0.34305       -0.85291
N          5.49879        0.05121        0.38460
C          5.10664       -1.38017        0.58431
H          5.35951       -1.90215       -0.34168
H          5.70486       -1.77236        1.40796
C          3.62785       -1.47694        0.89563
H          3.41316       -0.96524        1.84649
H          3.37850       -2.52996        1.01239
N          2.83377       -0.88042       -0.19076
C          3.18080        0.53044       -0.34314
H          2.61047        0.96227       -1.16872
H          2.95490        1.10429        0.57018
C          4.65168        0.67206       -0.68250
H          4.93276        1.72344       -0.75428
H          4.90052        0.15657       -1.61286
C          1.46064       -1.16675       -0.13227
C          0.47848       -0.18749       -0.05559
H          0.76148        0.85301        0.02838
C         -0.88266       -0.53300       -0.06664
C         -1.28104       -1.87607       -0.10639
C         -0.28883       -2.86760       -0.18226
H         -0.57123       -3.91289       -0.23973
C          1.02968       -2.51223       -0.21360
F          1.96307       -3.47303       -0.34071
C         -2.69724       -2.28056       -0.06617
O         -3.01632       -3.47571       -0.10271
C         -3.63283       -1.17309        0.02868
C         -3.16947        0.12186        0.04930
H         -3.85624        0.95908        0.09607
N         -1.86996        0.45950       -0.00500
C         -1.52251        1.85907       -0.00806
C         -1.76449        2.62057        1.13083
H         -2.18953        2.15403        2.01387
C         -1.46014        3.97837        1.12458
H         -1.63878        4.60458        1.99128
C         -0.90924        4.52552       -0.02331
C         -0.65652        3.77894       -1.16577
H         -0.22944        4.25655       -2.04029
C         -0.97490        2.42654       -1.15711
H         -0.79907        1.81274       -2.03509
F         -0.60749        5.83350       -0.03234
C         -5.08467       -1.40609        0.08258
O         -5.63125       -2.49003        0.00191
O         -5.79537       -0.26963        0.23652
H         -6.73967       -0.51444        0.25326
H          5.31010        0.55203        1.26373
