55
id_643_cb.log	Energy: -793308.4557149
C         -1.09814        3.02036        1.48788
H         -1.73667        2.54799        2.24123
H         -1.37654        4.07507        1.40859
H         -0.05547        2.96004        1.81562
C         -1.27465        2.35482        0.14548
H         -0.63397        2.79263       -0.62525
H         -2.31402        2.37201       -0.19461
O         -0.88115        0.97016        0.31232
C         -0.97564        0.18915       -0.74799
O         -1.38810        0.53990       -1.83469
C         -0.49308       -1.23465       -0.50738
C         -1.51539       -2.30116       -0.91380
H         -0.99391       -3.26440       -0.91239
H         -1.79737       -2.08927       -1.94990
C         -2.76946       -2.40100       -0.03221
H         -2.49051       -2.65117        0.99826
H         -3.35653       -3.24500       -0.41015
C         -3.61649       -1.14908       -0.03999
C         -3.64875       -0.29093        1.06351
H         -3.07450       -0.54501        1.95331
C         -4.39811        0.88770        1.03286
H         -4.40713        1.54482        1.89853
C         -5.12874        1.21989       -0.10697
H         -5.71162        2.13616       -0.13470
C         -5.10853        0.36668       -1.21376
H         -5.67869        0.61748       -2.10397
C         -4.35991       -0.80755       -1.17743
H         -4.34355       -1.46763       -2.04285
N         -0.05397       -1.44940        0.91328
H          0.04694       -2.46608        1.05560
H         -0.79089       -1.13196        1.55982
C          1.23935       -0.81142        1.32853
C          1.49764       -1.12117        2.79677
H          1.58074       -2.20115        2.95376
H          0.68685       -0.72427        3.41420
H          2.43314       -0.64578        3.10332
C          2.33388       -1.41938        0.45530
O          2.25615       -2.62567        0.15590
N          3.34981       -0.63548        0.10776
C          4.41496       -1.12420       -0.78639
H          3.97850       -1.73239       -1.58229
H          5.11348       -1.74578       -0.21607
C          5.06946        0.16145       -1.29267
H          6.12772        0.01727       -1.51947
H          4.56351        0.50553       -2.20072
C          4.83328        1.15365       -0.15082
H          4.92555        2.19920       -0.45122
H          5.53189        0.96252        0.67027
C          3.40608        0.81771        0.31042
C          2.34963        1.58428       -0.52339
O          1.69057        0.95865       -1.39089
O          2.24566        2.81104       -0.24935
H          0.39590       -1.35627       -1.13284
H          1.11766        0.25820        1.17753
H          3.25922        1.06784        1.36498
