38
id_615_ca.log	Energy: -599400.2132849
C          3.97026       -2.84182        0.63982
H          4.70199       -3.56533        0.98719
C          2.88182       -2.50792        1.44856
H          2.76514       -2.96983        2.42434
C          1.93864       -1.58507        1.00250
H          1.08771       -1.32760        1.63081
C          2.08419       -0.98654       -0.25387
C          3.17409       -1.32154       -1.05957
H          3.28219       -0.85707       -2.03663
C          4.11577       -2.24920       -0.61391
H          4.95955       -2.50847       -1.24635
C          1.08704        0.04126       -0.74281
C         -0.34927       -0.28537       -0.47378
C         -1.30139        0.59580       -0.03692
C         -2.52660       -0.14936        0.06448
C         -3.83833        0.17786        0.45108
H         -4.08459        1.19090        0.75896
C         -4.80658       -0.81475        0.43115
H         -5.82502       -0.57984        0.72644
C         -4.49133       -2.13262        0.03193
H         -5.27217       -2.88766        0.02838
C         -3.20664       -2.48308       -0.35743
H         -2.96194       -3.49518       -0.66639
C         -2.23239       -1.47794       -0.33718
N         -0.89700       -1.53024       -0.66778
H         -0.38430       -2.36158       -0.93902
C         -1.01741        2.04172        0.23775
H         -0.99155        2.24680        1.31646
H         -1.78806        2.68625       -0.19453
C          0.32309        2.42302       -0.38976
N          1.33939        1.36521       -0.06478
H          2.27263        1.71460       -0.31839
H          1.36201        1.22970        0.95664
C          0.84350        3.78828        0.09223
O          1.99569        3.82262        0.59357
O          0.05363        4.74968       -0.07031
H          1.25011        0.22790       -1.80987
H          0.24422        2.43687       -1.48182
