56
id_641_ca.log	Energy: -793561.5514622
C         -1.48392       -0.95440        3.31731
H         -0.68685       -0.20922        3.39640
H         -1.74245       -1.29798        4.32217
H         -2.36493       -0.48436        2.86965
C         -1.02264       -2.12767        2.48458
H         -1.77566       -2.91647        2.41158
H         -0.08937       -2.55536        2.85735
O         -0.78785       -1.61250        1.15308
C          0.00805       -2.28932        0.35448
O          0.51840       -3.36404        0.59192
C          0.20388       -1.55497       -0.96274
C         -0.75499       -2.06700       -2.03773
H         -0.52407       -1.53822       -2.96855
H         -0.56205       -3.13288       -2.20269
C         -2.22689       -1.87081       -1.65719
H         -2.47892       -2.51679       -0.80887
H         -2.82734       -2.22509       -2.50278
C         -2.61312       -0.44454       -1.32486
C         -2.21754        0.62721       -2.13359
H         -1.60862        0.44439       -3.01614
C         -2.60254        1.93134       -1.82615
H         -2.28773        2.74999       -2.46684
C         -3.39049        2.18550       -0.70385
H         -3.68917        3.20151       -0.46490
C         -3.78827        1.12622        0.10926
H         -4.39800        1.31217        0.98859
C         -3.39686       -0.17560       -0.19891
H         -3.70156       -0.99919        0.44334
N          1.61487       -1.79321       -1.40365
H          1.73683       -2.80349       -1.57244
C          2.70178       -1.36846       -0.43648
C          4.00602       -1.15848       -1.18401
H          4.32166       -2.10334       -1.63390
H          4.77316       -0.84065       -0.47405
H          3.91843       -0.40716       -1.97140
C          2.24362       -0.20739        0.46131
O          1.95535       -0.46876        1.63512
N          2.19587        1.05114       -0.00362
C          2.25827        1.53754       -1.39739
H          3.29678        1.73048       -1.68099
H          1.82488        0.81539       -2.09268
C          1.45351        2.83486       -1.33832
H          1.74287        3.52607       -2.13125
H          0.38566        2.61371       -1.43368
C          1.76439        3.36808        0.06152
H          1.04504        4.10726        0.42019
H          2.76441        3.80878        0.09333
C          1.75775        2.09433        0.92411
C          0.34815        1.80694        1.41084
O         -0.51388        1.27212        0.74748
O          0.14107        2.28439        2.64058
H         -0.79530        2.12976        2.87618
H          0.08077       -0.47875       -0.81027
H          2.80084       -2.20489        0.25471
H          2.42389        2.15401        1.78635
H          1.74788       -1.33515       -2.31608
