48
id_692_cb.log	Energy: -879037.1717921
C         -6.91832        0.18274        0.13196
H         -7.15601        1.24182        0.03125
H         -7.47255       -0.25770        0.96073
H         -7.13165       -0.34833       -0.79657
N         -5.46370        0.05031        0.41548
H         -5.26423        0.55257        1.29154
C         -5.06730       -1.38004        0.61119
H         -5.64677       -1.76936        1.45010
H         -5.34213       -1.90746       -0.30611
C         -3.58247       -1.47788        0.89104
H         -3.33218       -2.53140        1.00894
H         -3.34366       -0.96105        1.83428
N         -2.80811       -0.88364       -0.21215
C         -3.15853        0.52859       -0.35291
H         -2.91561        1.09545        0.56105
H         -2.60260        0.96490       -1.18609
C         -4.63500        0.67234       -0.66437
H         -4.90191        0.16256       -1.59352
H         -4.91450        1.72520       -0.72722
C         -1.43243       -1.16705       -0.16616
C         -0.45124       -0.18876       -0.07919
H         -0.73506        0.85168        0.01129
C          0.91439       -0.53155       -0.09238
C          1.31771       -1.87536       -0.14715
C          0.32274       -2.86758       -0.24179
H          0.60223       -3.91340       -0.31755
C         -0.99439       -2.51057       -0.26377
F         -1.92921       -3.47673       -0.41680
C          2.73475       -2.27070       -0.10486
O          3.05131       -3.47574       -0.19748
C          3.67256       -1.17692        0.02583
C          3.20121        0.11084        0.03496
H          3.89275        0.94525        0.08913
N          1.89520        0.45596       -0.02388
C          1.54990        1.85438       -0.01203
C          1.03664        2.44392       -1.16624
H          0.88666        1.84636       -2.06083
C          0.71712        3.79823       -1.16166
H          0.31641        4.29119       -2.04114
C          0.93428        4.51827        0.00401
C          1.44964        3.95504        1.15994
H          1.60200        4.56466        2.04431
C          1.75630        2.59573        1.14796
H          2.15733        2.11411        2.03492
F          0.62959        5.83581        0.01033
C          5.17130       -1.35635        0.15430
O          5.89755       -0.38787       -0.21100
O          5.60131       -2.43653        0.64114
