56
id_643_ca.log	Energy: -793586.4163178
C         -1.07750        3.00593        1.49665
H         -1.72825        2.54329        2.24541
H         -1.34023        4.06445        1.41492
H         -0.03856        2.93097        1.83296
C         -1.25497        2.34314        0.15317
H         -0.60574        2.77274       -0.61498
H         -2.29213        2.37392       -0.19230
O         -0.88098        0.95252        0.32112
C         -0.98609        0.17198       -0.73856
O         -1.38168        0.53008       -1.82866
C         -0.51971       -1.25757       -0.49694
C         -1.55041       -2.31412       -0.90806
H         -1.03827       -3.28228       -0.90380
H         -1.82486       -2.09928       -1.94556
C         -2.80939       -2.39959       -0.03249
H         -2.53862       -2.65264        0.99947
H         -3.40419       -3.23679       -0.41336
C         -3.64057       -1.13719       -0.04608
C         -3.66786       -0.27736        1.05623
H         -3.10252       -0.53834        1.94982
C         -4.40071        0.91146        1.01947
H         -4.40616        1.56980        1.88425
C         -5.11985        1.25195       -0.12520
H         -5.69010        2.17598       -0.15764
C         -5.10474        0.39700       -1.23076
H         -5.66636        0.65418       -2.12457
C         -4.37240       -0.78721       -1.18846
H         -4.35990       -1.44873       -2.05283
N         -0.08603       -1.47711        0.92546
H          0.00199       -2.49492        1.07011
H         -0.82039       -1.15019        1.57069
C          1.21346       -0.85249        1.34089
C          1.48320       -1.17757        2.80365
H          1.55715       -2.25953        2.94957
H          0.68157       -0.77769        3.43069
H          2.42643       -0.71392        3.10462
C          2.29590       -1.46072        0.45309
O          2.22332       -2.66388        0.16119
N          3.30208       -0.67338        0.06571
C          4.36512       -1.17724       -0.82600
H          3.92101       -1.77631       -1.62371
H          5.05024       -1.80847       -0.25085
C          5.03804        0.09961       -1.32590
H          6.09169       -0.06005       -1.56138
H          4.53069        0.46343       -2.22542
C          4.83659        1.08315       -0.17159
H          4.94936        2.13134       -0.45738
H          5.52590        0.86613        0.64919
C          3.40484        0.76295        0.30571
C          2.36688        1.53340       -0.51078
O          1.67216        1.03662       -1.37148
O          2.24672        2.83531       -0.23439
H          0.36908       -1.38994       -1.12160
H          1.09545        0.21974        1.20475
H          3.26986        1.00862        1.36431
H          2.83816        3.12561        0.48602
