75
id_666_cb.log	Energy: -1002454.5863398
C         -2.14137        3.95915       -1.94366
H         -1.57068        4.89221       -2.01316
H         -3.20456        4.19858       -2.05900
H         -1.83735        3.31991       -2.77389
C         -1.89919        3.30254       -0.57378
C         -2.30096        4.30935        0.50632
H         -3.37178        4.53183        0.43634
H         -1.74866        5.24320        0.35972
H         -2.08547        3.95418        1.51629
C         -2.68696        1.99002       -0.45724
C         -2.71822        1.07171       -1.52317
H         -2.18825        1.29136       -2.44473
C         -3.41023       -0.12985       -1.42491
H         -3.40780       -0.81734       -2.26840
C         -4.09825       -0.47171       -0.25308
C         -4.09010        0.43949        0.79858
H         -4.62838        0.20739        1.71576
C         -3.38951        1.64702        0.70247
H         -3.40699        2.31981        1.55372
C         -4.84625       -1.78781       -0.16142
C         -3.95725       -3.03479       -0.25670
H         -4.57273       -3.82682       -0.69955
H         -3.13058       -2.84580       -0.95215
C         -3.42607       -3.55523        1.08155
H         -2.85813       -4.47373        0.89402
H         -4.27616       -3.84729        1.71182
C         -2.58579       -2.57045        1.89211
H         -2.21458       -3.08298        2.80226
H         -3.22965       -1.75203        2.23585
N         -1.48253       -1.96745        1.15540
C         -0.44826       -2.93224        0.79694
H          0.00327       -3.36804        1.71268
H         -0.90308       -3.75467        0.23614
C          0.64000       -2.28447       -0.05789
H          1.40705       -3.03584       -0.27881
H          0.19902       -1.97355       -1.01377
C          1.26098       -1.06866        0.64105
H          1.78527       -1.43963        1.53310
C          0.14454       -0.12800        1.10328
H         -0.35670        0.31122        0.22920
H          0.54661        0.69761        1.69857
C         -0.89412       -0.87780        1.92540
H         -1.69518       -0.19410        2.22698
H         -0.42569       -1.26701        2.85380
C          2.30173       -0.35000       -0.26493
C          2.97383        0.84804        0.42833
C          3.46402        1.89778       -0.35857
H          3.33986        1.86021       -1.43710
C          4.10105        2.99387        0.22135
H          4.46790        3.79819       -0.41040
C          4.26469        3.05922        1.60506
H          4.75591        3.91426        2.06055
C          3.79064        2.01481        2.39802
H          3.91083        2.05098        3.47722
C          3.15357        0.91878        1.81438
H          2.79046        0.12277        2.45825
C          3.39680       -1.34268       -0.67314
C          4.19747       -1.94153        0.30890
H          4.05598       -1.68454        1.35644
C          5.18187       -2.86391       -0.03693
H          5.79111       -3.31652        0.74049
C          5.38712       -3.20403       -1.37630
H          6.15543       -3.92229       -1.64765
C          4.59831       -2.61061       -2.35874
H          4.74709       -2.86518       -3.40461
C          3.60871       -1.68673       -2.00982
H          2.99836       -1.23686       -2.78482
O          1.66773        0.09185       -1.45717
H          1.15074        0.91434       -1.28207
O         -5.78460       -1.88775       -1.24623
H         -6.32022       -1.07765       -1.25943
C         -0.38709        2.94488       -0.44836
O          0.15013        2.36894       -1.44282
O          0.21554        3.22707        0.61781
H         -5.39933       -1.81184        0.78911
