41
id_652_ca.log	Energy: -589697.1350779
C         -4.40672        0.47695       -0.18320
H         -4.84794        0.18023        0.76808
H         -5.06443        0.20640       -1.00875
H         -4.21270        1.54804       -0.20174
N         -3.12464       -0.26119       -0.36378
C         -2.40509        0.18751       -1.60305
H         -3.11583        0.10887       -2.42715
H         -2.15628        1.24144       -1.45369
C         -1.17366       -0.67001       -1.83959
H         -1.47755       -1.68635       -2.11781
H         -0.61601       -0.24442       -2.67984
C         -0.27857       -0.74372       -0.59344
C          0.24145        0.60693       -0.18623
C         -0.40506        1.54394        0.59533
C          0.31694        2.70516        0.90302
H         -0.13654        3.48260        1.51138
C          1.63267        2.86246        0.46700
H          2.19128        3.75952        0.71615
C          2.30025        1.85187       -0.23739
C          1.56951        0.71070       -0.53711
O          2.05524       -0.44678       -1.10200
C          1.04823       -1.48322       -0.88692
C          1.50674       -2.39941        0.26950
C          1.02401       -1.94375        1.62770
H          1.69870       -2.10800        2.46422
C         -0.20494       -1.45829        1.80145
H         -0.57807       -1.19050        2.78776
C         -1.10036       -1.26443        0.60437
C         -2.22785       -0.24350        0.86345
C         -1.74347        1.18131        1.20138
H         -2.51322        1.91709        0.94791
H         -1.64600        1.22616        2.29157
O          2.90931       -2.58315        0.22131
H          3.29556       -1.69538        0.12446
O          3.62104        2.01303       -0.56034
H          3.93773        1.21268       -1.01157
H          1.01324       -2.05592       -1.81509
H          1.06688       -3.38539        0.07217
H         -1.57194       -2.22367        0.34172
H         -2.86637       -0.60438        1.67311
H         -3.37717       -1.24853       -0.50579
