34
id_663_cb.log	Energy: -687808.4689224
C         -1.45479        1.90249       -1.75792
H         -2.27549        2.61831       -1.67161
H         -1.52185        1.40741       -2.73239
H         -0.50619        2.44616       -1.71237
C         -1.56816        0.85871       -0.63803
C         -0.35348       -0.06006       -0.77473
O         -0.44794       -1.09760       -1.41324
C          0.96568        0.34353       -0.19001
C          1.14446        1.53740        0.51533
H          0.32116        2.22869        0.65944
C          2.39597        1.85596        1.03626
H          2.53625        2.78317        1.58135
C          3.47384        0.99276        0.86535
H          4.45033        1.23437        1.27144
C          3.27915       -0.19281        0.16073
C          2.04479       -0.52888       -0.36944
H          1.90464       -1.45416       -0.91737
Cl         4.62895       -1.28382       -0.06278
N         -2.83082        0.13842       -0.74417
H         -2.67927       -0.61125       -1.42223
C         -3.31856       -0.49100        0.50759
C         -3.84159        0.59795        1.44585
H         -4.60658        1.19990        0.94519
H         -3.04244        1.26657        1.78312
H         -4.28687        0.14229        2.33626
C         -2.25531       -1.32492        1.23510
H         -2.68041       -1.76824        2.14198
H         -1.39918       -0.71050        1.54155
H         -1.88834       -2.13592        0.59739
C         -4.47610       -1.40336        0.10462
H         -4.91074       -1.88380        0.98664
H         -4.12874       -2.19009       -0.57550
H         -5.26101       -0.83198       -0.40125
H         -1.53350        1.36928        0.32649
