40
id_635_cb.log	Energy: -1291757.4180708
C          1.41704       -2.30259        0.92496
H          2.27325       -2.18153        1.58171
C          1.57385       -2.22388       -0.45795
H          2.55200       -2.03914       -0.89595
C          0.46560       -2.38806       -1.28810
H          0.56784       -2.33977       -2.36786
C         -0.78553       -2.61758       -0.71947
C         -0.98435       -2.67946        0.66457
C          0.15232       -2.51939        1.46863
H          0.03035       -2.56057        2.54827
C         -2.33748       -2.85738        1.31283
H         -2.17490       -3.00666        2.38407
H         -2.83646       -3.75625        0.93313
C         -3.30246       -1.67114        1.11407
H         -4.07493       -1.71003        1.88705
H         -3.79863       -1.72162        0.14520
N         -2.59844       -0.39479        1.16390
H         -1.83386       -0.30970        1.82801
C         -2.62941        0.48145        0.14378
O         -3.48910        0.46836       -0.74573
C         -1.49164        1.46322        0.09795
C         -0.19530        0.95068        0.12590
H         -0.03418       -0.11395        0.26923
C          0.89910        1.78657       -0.06102
C          0.72116        3.14941       -0.26498
H          1.58011        3.79765       -0.40968
C         -0.56849        3.67831       -0.27809
H         -0.72206        4.74303       -0.42003
C         -1.66189        2.83664       -0.10345
Cl        -3.25588        3.54527       -0.09520
N          2.21065        1.21373       -0.08563
C          2.77052        0.65557        1.07175
O          2.12172        0.73716        2.13354
N          3.98736        0.07754        0.99354
C          4.62338        0.02581       -0.19187
O          5.73956       -0.52668       -0.33543
C          3.97776        0.65341       -1.35443
H          4.47535        0.64959       -2.31846
N          2.82337        1.21747       -1.28818
Cl        -2.14453       -2.85169       -1.80478
