43
id_66_ca.log	Energy: -1009045.2272097
C          0.00224       -2.03111        0.18387
H          0.21340       -3.06696        0.42732
C          1.05263       -1.11427        0.03861
C          0.77296        0.24514       -0.20197
C         -0.56592        0.61501       -0.48002
C         -1.63456       -0.28307       -0.31478
C         -1.28597       -1.59736        0.07187
F         -2.28314       -2.47008        0.34438
N         -2.94278        0.11962       -0.52707
C         -3.53016        1.16989        0.33595
H         -3.08401        1.10936        1.33556
H         -3.35396        2.17342       -0.05820
C         -5.03524        0.84910        0.35476
H         -5.55989        1.43331       -0.40517
H         -5.49400        1.05630        1.32491
C         -5.12675       -0.61942       -0.04421
C         -3.99383       -0.76501       -1.04648
H         -4.35190       -0.38763       -2.01139
H         -3.65149       -1.78796       -1.19724
N         -4.88147       -1.49142        1.15501
H         -5.62301       -1.35811        1.85305
H         -3.98750       -1.27812        1.61419
H         -4.86847       -2.48487        0.89543
Cl        -0.93342        2.13007       -1.25010
N          1.83930        1.15390       -0.19909
C          3.10630        0.69408       -0.17873
H          3.85646        1.47684       -0.24698
C          3.45870       -0.62845       -0.09154
C          2.43129       -1.62793        0.10398
O          2.65865       -2.82969        0.31669
C          4.88000       -1.03255       -0.17624
O          5.81523       -0.18966        0.30532
O          5.25295       -2.07770       -0.67401
C          1.66877        2.58662        0.04947
H          1.58986        3.18586       -0.84898
C          0.89718        3.00554        1.25718
H          0.26063        3.87718        1.15013
H          0.50379        2.21497        1.89006
C          2.38987        3.17567        1.22548
H          2.98092        2.50850        1.84567
H          2.80059        4.17028        1.09020
H         -6.09659       -0.91185       -0.44346
H          5.43652        0.53934        0.82808
