16
id_694_cb.log	Energy: -477296.9079364
C         -0.47619        0.32914        0.85568
H         -0.89678        1.23079        1.31846
H         -0.61423       -0.48971        1.56903
C         -1.22686        0.00836       -0.43627
H         -0.79770       -0.90132       -0.87625
H         -1.06994        0.81369       -1.16595
S         -3.02914       -0.22262       -0.16635
C          1.03243        0.52477        0.68315
C          1.69607       -0.66073       -0.03528
O          2.21581       -0.44161       -1.15996
O          1.64483       -1.76008        0.57182
N          1.30806        1.77408       -0.09511
H          0.80895        2.57652        0.30471
H          1.02308        1.66528       -1.07494
H          2.31074        1.98940       -0.10326
H          1.50774        0.66294        1.65690
