42
id_66_cb.log	Energy: -1008766.1802749
C         -0.02225       -2.02390       -0.17945
H         -0.22736       -3.06079       -0.42349
C         -1.07918       -1.11253       -0.04037
C         -0.80270        0.24795        0.20010
C          0.53582        0.62225        0.48165
C          1.60717       -0.27108        0.32569
C          1.26425       -1.58672       -0.05944
F          2.26642       -2.45972       -0.32221
N          2.91563        0.14138        0.54251
C          3.50121        1.15493       -0.36519
H          3.06917        1.04091       -1.36692
H          3.30681        2.17406       -0.02254
C          5.00792        0.84973       -0.35324
H          5.51403        1.44877        0.40796
H          5.48221        1.04661       -1.31809
C          5.10071       -0.61186        0.06954
C          3.96432       -0.74234        1.07028
H          4.32311       -0.35875        2.03243
H          3.61868       -1.76310        1.22960
N          4.86221       -1.50204       -1.11788
H          5.60752       -1.37786       -1.81351
H          3.97048       -1.29844       -1.58601
H          4.84954       -2.49151       -0.84379
Cl         0.89379        2.14923        1.23542
N         -1.87001        1.14710        0.19262
C         -3.13771        0.66818        0.17179
H         -3.90620        1.43277        0.20758
C         -3.49549       -0.65014        0.09344
C         -2.45975       -1.62943       -0.12972
O         -2.65844       -2.83258       -0.39059
C         -4.97145       -0.98331        0.16707
O         -5.78382       -0.06400       -0.13704
O         -5.29794       -2.13856        0.55131
C         -1.71102        2.57342       -0.08448
H         -1.64555        3.19571        0.79976
C         -0.93373        2.97778       -1.29410
H         -0.30920        3.85981       -1.20124
H         -0.52463        2.17957       -1.90718
C         -2.42879        3.13045       -1.27814
H         -3.00730        2.44229       -1.88694
H         -2.85203        4.12315       -1.16941
H          6.06954       -0.89693        0.47667
