35
id_663_ca.log	Energy: -688101.6693458
C          1.36498        1.73223        1.85753
H          2.21735        2.41630        1.86904
H          1.34744        1.15603        2.78709
H          0.44661        2.31928        1.79080
C          1.47390        0.79504        0.65560
C          0.29165       -0.17406        0.65498
O          0.44386       -1.29142        1.11911
C         -1.02476        0.29122        0.14538
C         -1.19401        1.52984       -0.48103
H         -0.36041        2.21102       -0.61495
C         -2.45287        1.90264       -0.94288
H         -2.58896        2.86172       -1.43031
C         -3.54345        1.05323       -0.78485
H         -4.52680        1.34025       -1.14183
C         -3.35658       -0.17684       -0.15756
C         -2.11439       -0.57200        0.30858
H         -1.97818       -1.53117        0.79594
Cl        -4.72369       -1.24545        0.04939
N          2.72136       -0.02075        0.75922
H          2.47542       -0.87420        1.28791
C          3.40671       -0.43756       -0.54179
C          3.95710        0.81544       -1.21068
H          4.60470        1.37181       -0.52512
H          3.16407        1.47642       -1.57094
H          4.55328        0.50895       -2.07421
C          2.40002       -1.15901       -1.42733
H          2.91575       -1.46929       -2.34009
H          1.56937       -0.50803       -1.72156
H          2.00368       -2.05084       -0.93358
C          4.53565       -1.37054       -0.11954
H          5.07361       -1.70275       -1.01088
H          4.14165       -2.25184        0.39669
H          5.24243       -0.85633        0.53987
H          1.52253        1.36495       -0.27164
H          3.41525        0.48910        1.32222
