59
id_622_cb.log	Energy: -779783.7067990
C          3.65597        1.80971        0.40036
H          3.89676        2.86349        0.46214
C          3.17174        1.09379        1.48834
H          3.02421        1.57759        2.45179
N          2.86557       -0.20142        1.43143
C          3.03499       -0.80826        0.24044
N          3.51688       -0.21626       -0.86953
C          3.82027        1.07702       -0.76877
H          4.21223        1.54677       -1.66833
N          2.74193       -2.15700        0.16884
C          2.43111       -2.71834       -1.15071
H          3.14451       -2.35582       -1.88734
H          2.53443       -3.80452       -1.07332
C          1.01307       -2.34875       -1.56073
H          0.78210       -2.79916       -2.53135
H          0.96461       -1.25158       -1.68604
N          0.00980       -2.80102       -0.58362
C          0.36763       -2.29949        0.75008
H          0.29224       -1.19572        0.77817
H         -0.33271       -2.69446        1.49020
C          1.78428       -2.68841        1.14445
H          1.89360       -3.77668        1.14998
H          2.01742       -2.31329        2.13809
C         -1.27571       -2.22086       -0.98740
H         -1.22541       -1.12183       -0.90558
H         -1.42336       -2.44309       -2.05105
C         -2.50063       -2.71864       -0.22555
H         -2.69520       -3.75857       -0.50837
H         -2.32824       -2.71170        0.85518
C         -3.72709       -1.84810       -0.54496
H         -4.63488       -2.45963       -0.50683
H         -3.65667       -1.45967       -1.56854
C         -3.97423       -0.69010        0.42274
H         -4.08447       -1.06894        1.43886
H         -4.89639       -0.17545        0.14804
N         -2.92185        0.34356        0.47698
C         -2.96229        1.36149       -0.47622
O         -3.76568        1.29867       -1.39419
C         -2.05210        2.54880       -0.27894
H         -1.98057        3.06159       -1.24175
H         -2.56648        3.22106        0.42204
C         -0.68303        2.16472        0.28480
C          0.18226        3.40552        0.55559
H         -0.38430        4.20319        1.04739
H          0.99389        3.10878        1.23268
C          0.76026        3.81556       -0.81170
H          0.16701        4.61927       -1.25767
H          1.78241        4.19116       -0.71024
C          0.69557        2.54094       -1.69298
H          1.67002        2.27114       -2.11013
H          0.02035        2.69791       -2.53973
C          0.15188        1.42907       -0.77878
H          0.97609        0.90647       -0.27619
H         -0.42192        0.68110       -1.33537
C         -0.92609        1.37394        1.56371
H         -1.28934        2.05343        2.34855
H         -0.00376        0.91562        1.93643
C         -1.95954        0.27669        1.48081
O         -1.98236       -0.62884        2.30197
