23
id_638_cb.log	Energy: -450270.4956842
C         -4.06721       -0.37923        0.04014
H         -5.15305       -0.40590        0.03644
C         -3.34300       -1.25716       -0.76818
H         -3.86292       -1.96597       -1.40604
C         -1.95018       -1.22774       -0.75908
H         -1.38431       -1.91026       -1.38650
C         -1.26975       -0.30651        0.04586
C         -1.99988        0.57064        0.85630
H         -1.48066        1.27001        1.50632
C         -3.39331        0.52947        0.85635
H         -3.95125        1.20565        1.49741
C          0.21726       -0.28362        0.04222
C          0.93019        0.91268       -0.06853
C          2.37865        0.87013       -0.05465
N          2.97321       -0.34768        0.06506
C          2.18985       -1.42310        0.14127
N          0.83581       -1.46206        0.14141
N          2.80725       -2.63544        0.19294
H          3.78782       -2.64631        0.44399
H          2.25318       -3.42343        0.50375
O          3.07089        1.91968       -0.15468
C          0.30944        2.17208       -0.26855
N         -0.15743        3.22418       -0.44755
