14
id_687_ca.log	Energy: -452927.1166986
C         -1.04221        0.00329        0.97637
H         -1.67193        0.69770        1.53506
H         -0.92693       -0.90844        1.56525
C          0.32090        0.64392        0.72517
C          1.24842       -0.38947        0.09191
O          1.38074       -1.52148        0.52062
O          1.92407        0.06407       -0.96625
H          2.50893       -0.64506       -1.29934
N          0.19547        1.90528        0.01519
H         -0.04746        1.72982       -0.96013
H          1.10237        2.36858       -0.00680
S         -1.90328       -0.50306       -0.55492
H         -2.24039        0.73182       -0.96697
H          0.75844        0.85057        1.70969
