59
id_604_cb.log	Energy: -1013309.0095800
C         -4.22903        0.81589        0.29393
H         -4.96352        1.60752        0.39870
C         -4.62784       -0.50888        0.19833
H         -5.68245       -0.76212        0.21754
C         -3.67464       -1.51714        0.06949
C         -2.32086       -1.20078        0.02436
C         -1.92361        0.13624        0.11708
H         -0.86201        0.35658        0.09162
C         -2.87085        1.14973        0.25484
O         -2.56803        2.47100        0.36893
C         -1.19245        2.87311        0.27004
H         -0.58286        2.21370        0.90431
C         -0.69098        2.83205       -1.16915
H         -0.72113        1.81686       -1.58045
H         -1.35111        3.45958       -1.78203
C          0.73841        3.37893       -1.22308
H          1.10445        3.36766       -2.25317
H          1.39677        2.72267       -0.63865
N          0.87373        4.73604       -0.68439
H          0.28450        5.34311       -1.25747
C          0.34333        4.79265        0.68211
H          0.99777        4.18270        1.31767
H          0.41083        5.82172        1.04377
C         -1.09741        4.28899        0.81347
H         -1.77022        4.93667        0.23672
H         -1.41815        4.31203        1.86025
C         -1.22384       -2.22707       -0.06901
O         -1.12906       -3.15470        0.73691
N         -0.35203       -2.00620       -1.07278
H         -0.49815       -1.17566       -1.63550
C          0.97421       -2.60650       -1.11253
H          0.91361       -3.57633       -0.61134
H          1.23676       -2.78283       -2.16078
C          2.04811       -1.73344       -0.45181
C          2.14411       -0.35775       -1.14024
H          2.34062       -0.49763       -2.21270
H          1.18689        0.17835       -1.04782
C          3.25844        0.48321       -0.49970
H          3.31417        1.45592       -1.00322
C          4.60069       -0.24904       -0.64387
H          4.84028       -0.38459       -1.70657
H          5.40423        0.35220       -0.19924
C          4.52038       -1.61479        0.05437
H          5.47569       -2.14170       -0.05269
C          3.40366       -2.44932       -0.58963
H          3.34426       -3.43576       -0.10909
H          3.62248       -2.61495       -1.65368
C          4.20665       -1.40790        1.54375
H          4.16307       -2.37781        2.05609
H          5.00516       -0.82148        2.01640
C          2.86289       -0.67823        1.69132
H          2.63608       -0.53395        2.75404
C          2.94180        0.68660        0.98978
H          3.71853        1.30514        1.45776
H          1.98578        1.21938        1.10035
C          1.75185       -1.51886        1.04368
H          0.78662       -1.00659        1.16422
H          1.67018       -2.49330        1.54484
Cl        -4.21897       -3.17015       -0.09950
