17
id_693_ca.log	Energy: -477584.4450442
C          0.41469        0.83597       -0.01590
H          0.39362        1.04605        1.06202
H          0.83143        1.71435       -0.51825
C          1.29251       -0.37961       -0.28659
H          1.28082       -0.63787       -1.35019
H          0.95592       -1.25646        0.27244
S          3.05095       -0.08147        0.11363
H          2.86556        0.17899        1.42010
C         -1.03145        0.67734       -0.50957
C         -1.63251       -0.57413        0.10969
O         -2.11708       -0.62087        1.22538
O         -1.55591       -1.64409       -0.69099
H         -1.91172       -2.42685       -0.22459
N         -1.78530        1.87990       -0.18193
H         -1.83525        1.96872        0.83353
H         -2.74625        1.77583       -0.50597
H         -1.02775        0.54386       -1.59455
