38
id_614_cb.log	Energy: -599373.4882703
C          3.83495       -1.96902        1.00282
H          4.61001       -2.41849        1.61590
C          2.55834       -1.77179        1.52229
H          2.33412       -2.06756        2.54271
C          1.56119       -1.19299        0.73646
H          0.57139       -1.03312        1.15563
C          1.83475       -0.79869       -0.57454
C          3.11591       -1.01717       -1.09378
H          3.33158       -0.72191       -2.11889
C          4.11144       -1.59419       -0.31274
H          5.10164       -1.75426       -0.72842
C          0.82088       -0.06284       -1.44941
C         -0.57964       -0.16738       -0.94222
C         -1.31987        0.86217       -0.43232
C         -2.58933        0.30622       -0.05028
C         -3.75852        0.83601        0.51983
H         -3.82129        1.89405        0.75965
C         -4.82545       -0.01214        0.77084
H         -5.73521        0.38326        1.21195
C         -4.75093       -1.38595        0.46155
H         -5.60333       -2.02500        0.67064
C         -3.61147       -1.93779       -0.10353
H         -3.55075       -2.99491       -0.34318
C         -2.53655       -1.07931       -0.35538
N         -1.30205       -1.33813       -0.90436
H         -0.95513       -2.24843       -1.17893
C         -0.79700        2.26335       -0.35966
H         -1.06473        2.74041        0.58771
H         -1.21860        2.88052       -1.16121
C          0.72359        2.24334       -0.51272
N          1.12050        1.37804       -1.63224
H          2.12568        1.47181       -1.77157
C          1.41171        1.90249        0.80920
O          0.85803        1.70711        1.87098
O          2.74606        1.88025        0.67531
H          3.13797        1.63024        1.53471
H          0.87328       -0.51077       -2.44904
H          1.07749        3.24988       -0.76026
