39
id_657_cb.log	Energy: -458813.9038423
C          3.90583       -1.35465       -1.60023
H          3.45078       -2.31404       -1.33791
H          4.94063       -1.55187       -1.89509
H          3.37452       -0.94806       -2.46572
C          3.88459       -0.36443       -0.44522
H          4.39189        0.55026       -0.76235
H          4.45576       -0.76318        0.41113
N          2.52739        0.00651       -0.01563
C          2.56638        1.21090        0.83119
H          1.61340        1.27040        1.36904
H          3.35226        1.10806        1.59961
C          2.75879        2.49586        0.04107
H          2.70557        3.35565        0.71565
H          1.97366        2.60295       -0.71405
H          3.72747        2.53234       -0.46540
C          1.91968       -1.08139        0.73868
H          2.09829       -2.03430        0.22869
H          2.33065       -1.17566        1.75645
C          0.41041       -0.95852        0.87369
O         -0.19103       -1.51328        1.79411
N         -0.19677       -0.25537       -0.10972
H          0.43075        0.28326       -0.70264
C         -1.59369       -0.00120       -0.16821
C         -2.50350       -1.06536       -0.25883
C         -3.86695       -0.75845       -0.31899
H         -4.58220       -1.57372       -0.38884
C         -4.31040        0.55834       -0.31311
H         -5.37288        0.77516       -0.36639
C         -3.38762        1.60006       -0.25273
H         -3.72659        2.63228       -0.25758
C         -2.02081        1.33771       -0.17764
C         -1.01830        2.45894       -0.11330
H         -0.37966        2.47432       -1.00480
H         -0.35837        2.35541        0.75529
H         -1.52652        3.42372       -0.04843
C         -2.05529       -2.50042       -0.31987
H         -2.79509       -3.10316       -0.85274
H         -1.93217       -2.92010        0.68304
H         -1.09283       -2.59575       -0.83128
