44
id_646_cb.log	Energy: -554586.4563731
C          0.31271       -1.72955       -1.91331
H         -0.50004       -2.37074       -2.26884
H          0.79770       -1.27765       -2.78581
H         -0.14776       -0.92225       -1.32970
C          1.31428       -2.54491       -1.09763
H          1.74302       -3.33033       -1.72969
H          0.81226       -3.06118       -0.27337
C          2.50264       -1.73240       -0.59827
H          3.02052       -1.29052       -1.45129
H          3.21151       -2.34547       -0.03481
N          2.12093       -0.59641        0.31071
H          1.36403       -0.06296       -0.14414
C          3.26012        0.36174        0.53455
H          2.88604        1.11756        1.22909
H          4.04761       -0.21426        1.02788
C          3.75870        1.03192       -0.73913
H          4.47471        1.79237       -0.40924
H          4.32387        0.32659       -1.35582
C          2.64928        1.69163       -1.55472
H          2.07502        2.39429       -0.94054
H          1.94971        0.95566       -1.97189
H          3.07386        2.24490       -2.39728
C          1.56790       -1.08200        1.62089
H          0.93922       -1.94298        1.39961
H          2.41919       -1.42043        2.21675
C          0.75215       -0.00499        2.34465
H          0.22398       -0.52339        3.15419
H          1.41475        0.72648        2.81650
C         -0.21688        0.70649        1.43075
C         -0.03125        2.04909        1.06877
H          0.80815        2.59318        1.49969
C         -0.87801        2.71255        0.17627
H         -0.68927        3.75544       -0.07051
C         -1.98701        2.07661       -0.44112
C         -2.13730        0.72517       -0.04958
C         -1.30719        0.05524        0.84128
C         -1.81631       -1.35974        0.96642
H         -2.13646       -1.62378        1.98131
H         -1.10087       -2.12385        0.63955
C         -3.01584       -1.38811        0.02871
O         -3.74769       -2.35785       -0.20301
N         -3.13982       -0.15467       -0.51350
H         -3.86504        0.10195       -1.17542
O         -2.79999        2.65116       -1.28672
