34
id_677_cb.log	Energy: -1190175.8972336
C         -5.20055        3.17010       -0.64028
H         -4.48569        3.90296       -1.01504
H         -5.61895        3.53079        0.30585
H         -6.02704        3.06117       -1.34755
C         -4.54299        1.84868       -0.41258
N         -3.21346        1.78883       -0.47735
C         -2.68193        0.57514       -0.24176
N         -3.38013       -0.52545        0.04171
C         -4.69348       -0.33480        0.07356
N         -5.34230        0.80999       -0.14097
O         -5.48815       -1.36898        0.34607
C         -4.87979       -2.64582        0.58719
H         -4.21991       -2.59545        1.45511
H         -4.32187       -2.97298       -0.29198
H         -5.71146       -3.32114        0.78173
N         -1.31722        0.54048       -0.30825
H         -0.88626        1.43869       -0.50192
C         -0.42044       -0.53193       -0.15374
O         -0.80532       -1.68853        0.05488
N          0.85099       -0.08171       -0.27622
S          1.99938       -1.19751       -0.12456
O          2.01870       -2.15970       -1.24869
O          2.05470       -1.83360        1.21004
C          3.46985       -0.18752       -0.30542
C          4.27816       -0.42968       -1.41521
H          3.98156       -1.19210       -2.12729
C          5.44898        0.30003       -1.60561
H          6.06996        0.10332       -2.47336
C          5.81315        1.27576       -0.68175
H          6.72327        1.85105       -0.81974
C          5.01191        1.52380        0.43101
H          5.28944        2.28273        1.15546
C          3.84336        0.79212        0.62064
Cl         2.88910        1.15396        2.03320
