57
id_639_ca.log	Energy: -986542.5016827
C          1.56175        0.48600       -0.16161
H          0.76828       -0.24859       -0.22942
C          1.21727        1.82827       -0.08074
C          2.23740        2.76960        0.05359
C          3.54822        2.31824        0.10335
H          4.36168        3.03179        0.20614
N          3.88456        1.03294        0.03168
C          2.91866        0.11508       -0.10995
N          3.33141       -1.21047       -0.23455
C          2.29961       -2.24142       -0.14469
H          1.90067       -2.31550        0.87910
H          1.47547       -2.00409       -0.81778
C          2.83061       -3.58799       -0.59563
H          3.13632       -3.56593       -1.64258
H          2.08355       -4.36594       -0.44315
N          4.04589       -3.95155        0.19378
H          3.79470       -4.05218        1.18649
C          5.09907       -2.89901        0.05067
H          5.95313       -3.19291        0.65987
H          5.38097       -2.88100       -1.00314
C          4.54458       -1.56840        0.50928
H          5.30604       -0.81048        0.34239
H          4.33060       -1.60896        1.58845
Cl         1.92962        4.48077        0.12603
C         -0.24420        2.19697       -0.04693
O         -0.70096        2.88557        0.86642
N         -0.97408        1.69416       -1.05678
H         -0.50631        1.09580       -1.72789
C         -2.43082        1.69077       -1.04437
H         -2.75736        2.56256       -0.47087
H         -2.77624        1.81433       -2.07580
C         -3.02975        0.41070       -0.45084
C         -2.60726        0.21975        1.01734
H         -1.51322        0.13585        1.08402
H         -2.90503        1.10075        1.60229
C         -3.25471       -1.04744        1.59633
H         -2.94316       -1.16895        2.64035
C         -4.78379       -0.91810        1.52482
H         -5.11435       -0.05726        2.12046
H         -5.25570       -1.81337        1.94996
C         -5.21785       -0.74182        0.06216
H         -6.30828       -0.64257        0.00941
C         -4.56351        0.52285       -0.51323
H         -4.88762        1.40687        0.05325
H         -4.87698        0.66805       -1.55640
C         -4.76863       -1.96348       -0.75355
H         -5.24026       -2.87185       -0.35685
H         -5.08899       -1.85548       -1.79799
C         -3.23960       -2.09490       -0.68576
H         -2.91737       -2.96354       -1.27176
C         -2.80483       -2.26690        0.77744
H         -3.24577       -3.18154        1.19440
H         -1.71271       -2.37291        0.83300
C         -2.59264       -0.82515       -1.25905
H         -1.49808       -0.92585       -1.22841
H         -2.88155       -0.69393       -2.31146
H          4.40989       -4.85821       -0.12073
