28
id_679_cb.log	Energy: -594965.9164312
C          0.50751        3.56169        0.81946
H          0.46300        4.64101        0.64775
H          1.33347        3.35358        1.50621
H         -0.42843        3.24966        1.29235
C          0.73201        2.85235       -0.50695
H          1.68178        3.14862       -0.95113
H         -0.05609        3.07229       -1.22892
N          0.81671        1.39013       -0.34147
C         -0.30265        0.60310       -0.18304
C         -1.60298        1.17716       -0.26431
H         -1.77402        2.23237       -0.43281
C         -2.64888        0.31621       -0.10787
C         -2.48643       -1.06401        0.13278
C         -1.25637       -1.63420        0.22356
H         -1.11360       -2.69132        0.41715
C         -0.13303       -0.77788        0.05679
C          1.20338       -1.33143        0.13860
O          1.42083       -2.53667        0.38509
C          2.26583       -0.35713       -0.05923
N          2.04505        0.91614       -0.25744
C          3.73202       -0.77059       -0.05643
O          4.02920       -1.77962       -0.74737
O          4.52950       -0.06447        0.61331
O         -3.72432       -1.63226        0.29136
C         -4.65996       -0.65069       -0.16161
H         -5.51382       -0.62490        0.51114
H         -4.94001       -0.86342       -1.19716
O         -3.97864        0.61185       -0.11274
