60
id_604_ca.log	Energy: -1013601.1298902
C         -4.19254        0.94921        0.31211
H         -4.89294        1.76941        0.42881
C         -4.64528       -0.35771        0.20821
H         -5.70909       -0.56809        0.23273
C         -3.73482       -1.40313        0.06620
C         -2.36954       -1.14275        0.01305
C         -1.91816        0.17648        0.11171
H         -0.84856        0.35247        0.07961
C         -2.82269        1.22414        0.26664
O         -2.46261        2.53402        0.39254
C         -1.07954        2.87014        0.28513
H         -0.48328        2.18300        0.90086
C         -0.61028        2.82642       -1.16823
H         -0.69007        1.82200       -1.59383
H         -1.24591        3.49342       -1.76281
C          0.84068        3.26592       -1.26348
H          1.19303        3.30250       -2.29392
H          1.49859        2.61867       -0.67740
N          0.98806        4.64360       -0.68840
H          0.44307        5.30674       -1.25478
C          0.52981        4.72152        0.73835
H          1.19429        4.06725        1.30760
H          0.66611        5.75098        1.06747
C         -0.92065        4.27845        0.83976
H         -1.56489        4.96594        0.27923
H         -1.22055        4.30847        1.89028
C         -1.31391       -2.21162       -0.08436
O         -1.25958       -3.14525        0.71794
N         -0.42874       -2.01977       -1.08243
H         -0.54203       -1.18383       -1.64454
C          0.87803       -2.66227       -1.11059
H          0.78339       -3.62641       -0.60394
H          1.14194       -2.85332       -2.15588
C          1.97465       -1.81952       -0.44755
C          2.12173       -0.45332       -1.14601
H          2.32179       -0.60873       -2.21562
H          1.18215        0.11548       -1.06621
C          3.25898        0.35506       -0.50350
H          3.35309        1.32086       -1.01514
C          4.57739       -0.42235       -0.63112
H          4.82054       -0.57428       -1.69073
H          5.39673        0.15567       -0.18457
C          4.44604       -1.77872        0.07712
H          5.38396       -2.33801       -0.01852
C          3.30707       -2.58065       -0.56936
H          3.21139       -3.56074       -0.08182
H          3.52836       -2.76174       -1.63034
C          4.12857       -1.54960        1.56234
H          4.04891       -2.51332        2.08189
H          4.94254       -0.98618        2.03657
C          2.80860       -0.77494        1.69366
H          2.57862       -0.61430        2.75331
C          2.93804        0.58091        0.98193
H          3.73103        1.17726        1.45136
H          1.99870        1.14528        1.08156
C          1.67538       -1.58420        1.04430
H          0.72648       -1.04056        1.15642
H          1.55972       -2.55185        1.55184
Cl        -4.34589       -3.03130       -0.10630
H          1.96983        4.93631       -0.74813
