76
id_656_cb.log	Energy: -1564447.8976785
C          1.22579       -1.85650        4.23940
H          0.64486       -2.77122        4.39440
H          1.03194       -1.17477        5.07489
H          2.28631       -2.12150        4.24483
C          0.80640       -1.19112        2.92550
C         -0.67022       -0.80084        3.03409
H         -1.30419       -1.65739        3.28024
H         -1.03591       -0.34871        2.10562
H         -0.76744       -0.06391        3.83755
C          1.09069       -2.15236        1.75232
C          0.01349       -2.73537        1.06482
H         -1.00354       -2.45482        1.31713
C          0.19693       -3.67223        0.05013
H         -0.66643       -4.08762       -0.46299
C          1.48723       -4.07054       -0.29228
H          1.65311       -4.80989       -1.07128
C          2.56553       -3.49874        0.37492
H          3.57742       -3.79404        0.10169
C          2.40003       -2.53124        1.37652
C          3.67689       -1.93687        1.94650
H          3.45900       -1.24154        2.75409
H          4.28751       -2.74636        2.36661
C          4.53550       -1.19765        0.90158
H          4.96913       -1.90405        0.18460
H          5.37502       -0.74269        1.44047
C          3.75862       -0.10518        0.13792
C          3.04767       -0.62001       -1.09592
C          3.75065       -1.23085       -2.14498
H          4.83343       -1.31935       -2.09071
C          3.06927       -1.72381       -3.25404
H          3.61945       -2.19919       -4.06117
C          1.68011       -1.61225       -3.33242
H          1.14812       -2.00394       -4.19632
C          0.95893       -1.00028       -2.29901
C          1.66491       -0.50043       -1.19142
H          1.12775       -0.03081       -0.37150
C         -0.50522       -0.92913       -2.39834
H         -0.91442       -1.30751       -3.33384
C         -1.32811       -0.46561       -1.44080
H         -0.92656       -0.09080       -0.50067
C         -2.79326       -0.40472       -1.52264
C         -3.51438       -0.88152       -2.66083
H         -2.98468       -1.30702       -3.50563
C         -4.87753       -0.79848       -2.67362
H         -5.45378       -1.15354       -3.52428
C         -5.55582       -0.23983       -1.55790
C         -6.96592       -0.11719       -1.49242
H         -7.56421       -0.46453       -2.33061
C         -7.57238        0.43182       -0.38889
H         -8.65139        0.52976       -0.33111
C         -6.76408        0.87439        0.68395
C         -5.39716        0.77517        0.66584
H         -4.78994        1.11961        1.49712
C         -4.76130        0.20877       -0.47048
N         -3.40077        0.11900       -0.46776
Cl        -7.55505        1.57282        2.07970
S          4.96316        1.22945       -0.27388
C          3.91131        2.47019       -1.11254
H          4.56004        2.94949       -1.85271
H          3.13057        1.93319       -1.66393
C          3.31976        3.52641       -0.20159
C          3.12111        4.89094       -0.80512
H          3.39599        5.03023       -1.84705
H          2.25250        5.45778       -0.48139
C          4.22777        4.65951        0.19135
H          4.11410        5.07799        1.18740
H          5.24829        4.63701       -0.18196
C          2.31123        3.06283        0.82571
H          2.00802        3.91895        1.44425
H          2.76027        2.33893        1.51738
C          1.01316        2.46799        0.26906
O          0.66368        2.73184       -0.90934
O          0.32976        1.75627        1.07215
O          1.56862        0.01853        2.80934
H          1.13772        0.61152        2.14684
H          3.01036        0.32385        0.81032
