16
id_603_ca.log	Energy: -238556.6848092
C          2.13298        0.69877       -0.00001
H          3.10230        1.18019       -0.00001
C          0.95657        1.45227       -0.00000
H          1.00097        2.53654       -0.00001
C         -0.26793        0.79141       -0.00000
C         -1.65351        1.16674       -0.00001
H         -2.05056        2.17063       -0.00002
C         -2.37245        0.00974        0.00002
H         -3.44008       -0.15221        0.00003
N         -1.51889       -1.08498        0.00001
H         -1.80135       -2.05921        0.00001
C         -0.25423       -0.62652        0.00000
N          0.89429       -1.32457       -0.00000
C          2.08050       -0.68364       -0.00000
H          2.95723       -1.31723       -0.00000
H          0.87204       -2.34446        0.00000
