42
id_680_ca.log	Energy: -720392.8981746
C          0.11074       -2.13338       -0.33435
H          0.42430       -3.15979       -0.49462
C          1.06953       -1.12312       -0.13784
C          0.62344        0.19722        0.02455
C         -0.74915        0.49731        0.03317
H         -1.06805        1.51726        0.19576
C         -1.70387       -0.50015       -0.14897
C         -1.21755       -1.81625       -0.34922
F         -2.11171       -2.79764       -0.60638
N         -3.08007       -0.25247       -0.19185
C         -3.47467        1.15873       -0.22436
H         -3.23334        1.65167        0.73369
H         -2.92129        1.66657       -1.01995
C         -4.97038        1.27780       -0.48868
H         -5.19411        0.88034       -1.48525
H         -5.24618        2.33554       -0.48208
N         -5.80065        0.56029        0.48330
H         -5.64600        0.99182        1.39672
C         -5.34939       -0.83172        0.57301
H         -5.90027       -1.33535        1.37174
H         -5.59613       -1.33171       -0.37080
C         -3.85813       -0.97016        0.84020
H         -3.58011       -2.02422        0.85001
H         -3.61870       -0.54212        1.82856
N          1.56915        1.21338        0.20431
C          2.87072        0.91592        0.27062
H          3.52522        1.76023        0.45099
C          3.38787       -0.35812        0.12713
C          2.49602       -1.47606       -0.10944
O          2.86010       -2.65539       -0.27322
C          4.84287       -0.53782        0.22222
O          5.43811       -1.60072        0.14109
O          5.51175        0.61843        0.41833
H          6.46402        0.41301        0.47828
C          1.12956        2.58737        0.38830
H          0.71790        2.77016        1.37640
C          0.51960        3.30783       -0.77424
H          0.46652        2.76413       -1.71270
H         -0.32043        3.96083       -0.56200
C          1.88844        3.68709       -0.28312
H          2.73079        3.41213       -0.90995
H          2.00880        4.60650        0.27886
