33
id_627_ca.log	Energy: -411922.2122907
C          2.95468        1.95342       -0.58666
H          2.32715        2.78239       -0.24804
H          2.70059        1.72947       -1.62695
H          4.00135        2.26897       -0.54624
C          2.71851        0.73896        0.30804
C          1.26888        0.27793        0.29063
C          0.69336       -0.20554       -0.89069
H          1.29128       -0.26712       -1.79855
C         -0.63685       -0.61574       -0.91349
H         -1.06661       -0.99492       -1.83872
C         -1.43239       -0.55384        0.23866
C         -0.85094       -0.07136        1.41432
H         -1.44975       -0.01414        2.32100
C          0.48406        0.33653        1.44283
H          0.91868        0.70456        2.36947
C         -2.88442       -0.95810        0.18497
H         -2.97876       -1.90626       -0.35957
H         -3.25707       -1.12842        1.20397
C         -3.78495        0.08930       -0.49640
H         -3.40177        0.24970       -1.51448
C         -5.21429       -0.44090       -0.59341
H         -5.62621       -0.61420        0.40910
H         -5.25219       -1.38848       -1.14254
H         -5.86655        0.27559       -1.10491
C         -3.75624        1.42216        0.24955
H         -4.09039        1.28584        1.28674
H         -4.42410        2.14860       -0.22678
H         -2.75038        1.85525        0.27422
C          3.60541       -0.41854       -0.09943
O          4.25217       -0.48371       -1.12759
O          3.59692       -1.41022        0.80514
H          4.15942       -2.14202        0.48483
H          2.98346        0.98101        1.34353
