45
id_611_cb.log	Energy: -1576682.0782912
C         -2.60798        3.57699       -1.17156
H         -2.42828        3.56039       -2.24979
H         -2.05907        4.42126       -0.73819
H         -3.67651        3.73936       -1.00012
C         -2.16799        2.26925       -0.53075
C         -2.52488        2.26363        0.95534
H         -3.61653        2.33313        1.05987
H         -2.07596        3.13488        1.44518
O         -2.02518        1.12437        1.64575
H         -2.25146        0.32635        1.13445
N         -0.72956        2.08076       -0.72559
H         -0.16677        2.86462       -0.40415
C         -0.13859        0.85739       -0.63684
C          1.23820        0.70421       -0.43741
C          1.76057       -0.59282       -0.36015
N          0.98830       -1.68809       -0.49476
C         -0.29632       -1.42605       -0.71498
N         -0.90123       -0.24566       -0.79491
S         -1.27733       -2.89356       -0.92605
C         -2.91987       -2.20419       -1.26556
H         -2.83668       -1.49417       -2.08945
H         -3.49910       -3.06070       -1.62891
C         -3.62854       -1.57643       -0.08934
C         -3.50799       -2.02604        1.23089
H         -2.83130       -2.84737        1.44663
C         -4.23241       -1.43505        2.26493
H         -4.11895       -1.80107        3.28008
C         -5.09885       -0.37050        2.01245
H         -5.66878        0.11346        2.79895
C         -5.21940        0.07344        0.70872
C         -4.50121       -0.51849       -0.32135
F         -4.67680       -0.03928       -1.56959
F         -6.03565        1.10060        0.40280
N          3.10734       -0.69021       -0.13270
C          3.65415        0.50656       -0.03223
S          2.51314        1.87126       -0.21770
N          4.92357        0.85505        0.18391
S          6.00803       -0.33498        0.37154
O          5.76725       -1.14610        1.59035
O          6.20468       -1.13796       -0.86060
C          7.48853        0.60181        0.63794
H          7.67674        1.21987       -0.24111
H          8.29425       -0.12172        0.78031
H          7.36032        1.21660        1.52991
H         -2.66885        1.43195       -1.02329
