53
id_649_ca.log	Energy: -698540.4467357
C         -4.80488        1.52080       -0.92335
H         -3.71439        1.59599       -0.83263
H         -5.21529        2.53015       -0.82827
H         -5.03237        1.15549       -1.93078
C         -5.38265        0.58793        0.13658
H         -5.13639        0.95806        1.13736
H         -6.47408        0.56305        0.06197
C         -4.85123       -0.84232       -0.00305
H         -5.28864       -1.48592        0.76762
H         -5.11595       -1.25746       -0.98051
C         -3.35297       -0.85817        0.20098
O         -2.83904       -0.41664        1.22931
N         -2.62190       -1.37343       -0.82769
H         -3.11253       -1.55289       -1.69703
C         -1.21235       -1.31992       -0.89628
C         -0.60257       -0.92048       -2.08798
H         -1.21762       -0.68929       -2.95287
C          0.77626       -0.78744       -2.16856
H          1.22069       -0.45538       -3.09925
C          1.57248       -1.05499       -1.05217
C          0.97421       -1.53753        0.12553
C         -0.41833       -1.64939        0.19614
H         -0.86791       -2.00074        1.11721
C          1.74645       -1.91076        1.35759
O          1.23645       -1.72332        2.45255
C          3.09957       -2.55796        1.23779
H          3.87718       -1.78988        1.30619
H          3.22164       -3.08235        0.28907
H          3.22650       -3.24504        2.07702
O          2.92677       -0.85029       -1.03436
C          3.47113        0.27706       -1.73215
H          4.50756        0.00272       -1.93641
H          2.96515        0.45919       -2.68160
C          3.47030        1.54052       -0.87767
C          2.09736        2.19492       -0.61759
H          2.22365        3.26641       -0.45059
H          1.41126        2.03828       -1.45148
N          1.47609        1.66238        0.62696
H          1.21791        0.67314        0.50149
C          0.24704        2.37484        1.13672
H          0.56414        3.40562        1.31473
C         -0.85225        2.31492        0.09041
H         -0.60303        2.88509       -0.80786
H         -1.76491        2.73622        0.52053
H         -1.05474        1.27364       -0.18779
C         -0.15036        1.69382        2.43615
H         -1.00830        2.21450        2.86805
H          0.66929        1.71208        3.16092
H         -0.43708        0.65243        2.24959
O          4.14517        1.32368        0.35115
H          3.98913        0.39963        0.61371
H          4.04957        2.27625       -1.44463
H          2.20224        1.67577        1.35740
