70
id_601_ca.log	Energy: -1293879.4074358
C         -3.33204       -1.67324       -2.62841
H         -4.34528       -1.69501       -3.03498
H         -2.71731       -2.35996       -3.21503
H         -2.92692       -0.66174       -2.73587
C         -3.34628       -2.10985       -1.15442
C         -1.96357       -2.03749       -0.54543
C         -0.85368       -2.57185       -1.21823
H         -0.97306       -3.01260       -2.20303
C          0.40510       -2.55811       -0.64226
H          1.26338       -2.96975       -1.16633
C          0.58956       -2.01600        0.63843
C         -0.48810       -1.47685        1.32444
H         -0.38265       -1.03966        2.31028
C         -1.75608       -1.50086        0.72185
C         -2.87086       -0.90703        1.49304
O         -2.71972       -0.50122        2.63832
N         -4.10955       -0.79101        0.86245
C         -4.36767       -1.25060       -0.42071
O         -5.45375       -1.00452       -0.92986
C         -5.09272        0.13024        1.45793
H         -4.84109        0.21949        2.51168
H         -6.08421       -0.31413        1.37022
C         -5.06214        1.51356        0.76876
H         -5.67198        1.48643       -0.13724
H         -5.51005        2.23458        1.45938
C         -3.65496        1.92233        0.41211
C         -3.17600        1.70126       -0.88513
H         -3.84882        1.31238       -1.64610
C         -1.85216        1.97318       -1.21881
H         -1.48657        1.80509       -2.22743
C         -1.01435        2.47997       -0.22820
C         -1.45841        2.71717        1.07301
H         -0.78625        3.12159        1.82402
C         -2.78415        2.43341        1.38305
H         -3.14667        2.60311        2.39376
S          0.65587        2.88207       -0.64751
O          1.12982        3.97195        0.20317
O          0.75881        3.05123       -2.09794
N          1.44824        1.47423       -0.16633
H          0.86503        0.63473       -0.22515
C          2.81812        1.35015       -0.48624
O          3.47380        2.34655       -0.79972
N          3.30134        0.10155       -0.41273
H          2.72668       -0.63061        0.00694
C          4.74223       -0.15831       -0.47637
H          5.14351        0.44747       -1.29751
C          5.44006        0.23598        0.82796
H          5.27200        1.29991        1.03068
H          4.98033       -0.33368        1.64868
C          6.93685       -0.07597        0.75853
H          7.41734        0.19396        1.70543
H          7.39864        0.54369       -0.02323
C          7.17425       -1.55306        0.43743
H          8.24808       -1.75689        0.35702
H          6.79017       -2.16761        1.26420
C          6.46284       -1.95251       -0.85722
H          6.60488       -3.01975       -1.05953
H          6.90902       -1.40418       -1.69874
C          4.96699       -1.63563       -0.79066
H          4.47321       -1.89294       -1.73480
H          4.49887       -2.23887        0.00171
O          1.86795       -2.04502        1.11782
C          2.09693       -1.52078        2.42572
H          1.50038       -2.06259        3.16611
H          3.15821       -1.67193        2.62268
H          1.85854       -0.45183        2.46131
C         -3.86770       -3.56323       -1.05322
H         -3.18983       -4.22429       -1.60152
H         -4.86554       -3.63380       -1.49646
H         -3.91397       -3.89406       -0.01074
