42
id_619_ca.log	Energy: -587956.3047962
C         -1.47573       -1.42008        1.68925
H         -1.15345       -0.63566        2.37625
H         -0.66496       -1.63168        0.98407
H         -1.68652       -2.32682        2.25900
C         -2.69814       -1.01239        0.95521
N         -3.69942       -1.82771        0.61466
C         -4.65593       -1.14192       -0.10075
H         -5.55113       -1.61838       -0.46519
C         -4.21639        0.13640       -0.19071
H         -4.64806        1.00957       -0.65514
N         -3.01062        0.20203        0.48493
C         -2.14607        1.38368        0.48535
H         -2.78287        2.25400        0.65608
H         -1.45133        1.29155        1.32304
C         -1.40301        1.53183       -0.85428
C         -0.54998        2.80681       -0.86708
H         -0.16271        2.94334       -1.88167
H         -1.18123        3.67045       -0.63842
C          0.63365        2.75975        0.10946
H          0.29638        2.88838        1.14643
H          1.32177        3.58334       -0.10293
C          1.32754        1.44578       -0.01969
C          0.77651        0.30850       -0.60430
C          1.76275       -0.73927       -0.50920
C          1.81462       -2.08801       -0.88509
H          0.97149       -2.55423       -1.38393
C          2.96930       -2.80875       -0.60855
H          3.02751       -3.85446       -0.89393
C          4.06890       -2.21068        0.03241
H          4.95675       -2.80248        0.23092
C          4.04012       -0.87642        0.41861
H          4.88572       -0.41060        0.91502
C          2.87526       -0.16232        0.14152
N          2.57534        1.16676        0.42787
C          3.49214        2.07191        1.10075
H          2.98063        3.00895        1.31628
H          4.36185        2.26906        0.46921
H          3.82336        1.62378        2.04018
C         -0.57486        0.27370       -1.09383
O         -1.09458       -0.72713       -1.59962
H         -2.15371        1.58212       -1.65011
H         -3.73393       -2.81184        0.86512
