35
id_628_cb.log	Energy: -904791.0418875
C         -1.27253       -1.67450        1.87200
H         -0.29967       -1.78219        2.35388
H         -1.83126       -2.60255        1.99236
H         -1.81471       -0.84095        2.33657
N         -1.00780       -1.42003        0.44142
C         -0.11009       -0.31771        0.18146
C         -0.59602        0.98698        0.02488
C         -2.08746        1.21371        0.04779
C         -2.58819        2.49407        0.29698
H         -1.89053        3.30491        0.47891
C         -3.96230        2.72539        0.32094
H         -4.33267        3.72562        0.52397
C         -4.86506        1.68598        0.09062
H         -5.93386        1.87314        0.11362
C         -4.39210        0.40109       -0.16889
H         -5.07565       -0.42342       -0.34880
C         -3.01817        0.19359       -0.18847
S         -2.34384       -1.40644       -0.52523
O         -1.90854       -1.46437       -1.92346
O         -3.27647       -2.43493       -0.05835
O          0.12879        2.01959       -0.15949
C          1.29534       -0.70208        0.18749
O          1.66010       -1.88062        0.36914
N          2.19472        0.31801       -0.00263
H          1.77483        1.24565       -0.11293
C          3.58725        0.27308       -0.03814
C          4.35049       -0.90240        0.04460
H          3.87238       -1.86505        0.14528
C          5.73364       -0.78649       -0.01195
H          6.34676       -1.68110        0.04858
C          6.32333        0.46890       -0.14810
H          7.39926        0.59561       -0.19537
C          5.47737        1.56866       -0.22515
H          5.88409        2.57060       -0.33462
N          4.14429        1.48712       -0.17263
