56
id_639_cb.log	Energy: -986251.6626339
C          1.58299        0.44632       -0.16335
H          0.77622       -0.27203       -0.24204
C          1.26499        1.79347       -0.08127
C          2.30287        2.71486        0.06768
C          3.60202        2.23482        0.13004
H          4.42829        2.93208        0.24509
N          3.91569        0.94362        0.05868
C          2.93406        0.04037       -0.10065
N          3.31025       -1.28566       -0.22794
C          2.26123       -2.30241       -0.11814
H          1.86806       -2.33501        0.91168
H          1.43653       -2.04916       -0.78728
C          2.78017       -3.67817       -0.51978
H          3.00357       -3.67540       -1.59248
H          1.98552       -4.40892       -0.34922
N          3.99049       -4.09823        0.18640
H          3.76518       -4.11913        1.18361
C          5.00946       -3.06327       -0.00154
H          5.90806       -3.33177        0.56001
H          5.27524       -3.04330       -1.06444
C          4.56384       -1.67626        0.43378
H          5.33411       -0.94773        0.18770
H          4.42138       -1.66296        1.52692
Cl         2.03036        4.43342        0.14069
C         -0.18870        2.19104       -0.06458
O         -0.64207        2.90150        0.83406
N         -0.92009        1.68877       -1.07460
H         -0.45719        1.07148       -1.73173
C         -2.37659        1.70256       -1.06929
H         -2.69571        2.58522       -0.50836
H         -2.71620        1.81713       -2.10372
C         -2.99336        0.43716       -0.46242
C         -2.57928        0.25971        1.00988
H         -1.48666        0.16293        1.08225
H         -2.86840        1.15173        1.58240
C         -3.24466       -0.99193        1.60225
H         -2.93906       -1.10372        2.64912
C         -4.77174       -0.84517        1.52231
H         -5.09455        0.02717        2.10537
H         -5.25617       -1.72921        1.95680
C         -5.19737       -0.68255        0.05559
H         -6.28631       -0.57091       -0.00329
C         -4.52537        0.56672       -0.53296
H         -4.84127        1.46171        0.02085
H         -4.83266        0.70241       -1.57927
C         -4.75941       -1.91985       -0.74249
H         -5.24371       -2.81737       -0.33645
H         -5.07387       -1.82134       -1.78968
C         -3.23242       -2.06873       -0.66607
H         -2.91801       -2.94858       -1.23944
C         -2.80621       -2.22722        0.80117
H         -3.26022       -3.13096        1.22779
H         -1.71579       -2.34592        0.86301
C         -2.56754       -0.81427       -1.25253
H         -1.47447       -0.92797       -1.21498
H         -2.84975       -0.69331       -2.30801
