52
id_610_ca.log	Energy: -617341.0457992
C          0.38687       -2.72587        1.04322
H          1.43061       -2.82027        1.35413
H          0.31546       -3.02951       -0.00392
H         -0.21211       -3.40893        1.65626
C         -0.05942       -1.29200        1.26940
H          0.40963       -0.60784        0.54986
C          0.19386       -0.82259        2.69149
H         -0.14912        0.20659        2.83841
H          1.26704       -0.86248        2.89557
H         -0.31772       -1.47555        3.40710
N         -1.54507       -1.17259        1.00423
H         -1.81515       -0.21064        1.25288
C         -1.96567       -1.47814       -0.39775
H         -1.30029       -0.92544       -1.06498
H         -1.81759       -2.54776       -0.54976
C         -3.43119       -1.14815       -0.67229
C         -3.83048        0.31982       -0.49123
H         -3.80377        0.60618        0.56668
H         -4.86069        0.43394       -0.83320
O         -3.03947        1.18590       -1.29592
C         -1.83331        1.62620       -0.78634
C         -1.67542        2.07501        0.52495
H         -2.51883        2.11186        1.20820
C         -0.41377        2.49080        0.95635
H         -0.29205        2.82601        1.98362
C          0.68603        2.49597        0.09806
C          0.49118        2.08434       -1.22648
H          1.33069        2.08797       -1.91589
C         -0.75135        1.64762       -1.66799
H         -0.89948        1.30662       -2.68803
C          2.06091        2.85183        0.60387
H          1.98874        3.51441        1.47204
H          2.63160        3.37435       -0.17155
C          2.83208        1.60244        1.01517
H          2.26683        1.04784        1.78103
H          3.80871        1.87157        1.44290
O          3.00763        0.79643       -0.13375
C          3.53806       -0.48521        0.16482
H          4.49261       -0.37836        0.70106
H          2.84148       -1.02732        0.82519
C          3.71631       -1.23300       -1.12451
H          4.52237       -0.87606       -1.75941
C          2.48052       -1.73283       -1.81744
H          1.52744       -1.53495       -1.33193
H          2.45448       -1.70002       -2.90126
C          3.42016       -2.70429       -1.16233
H          4.03618       -3.32673       -1.80203
H          3.10230       -3.17582       -0.23722
O         -4.30051       -1.96992        0.08721
H         -4.39673       -1.59369        0.97804
H         -3.59080       -1.41443       -1.72160
H         -2.04975       -1.79431        1.65221
