69
id_64_ca.log	Energy: -824736.8312251
C         -3.87020       -0.19340       -2.17812
H         -3.58586        0.86592       -2.12869
H         -4.85523       -0.24872       -2.65763
H         -3.15914       -0.70178       -2.83385
C         -3.91741       -0.83345       -0.78691
C         -5.20754       -0.41305       -0.05428
H         -5.20128       -0.79105        0.97485
H         -6.05944       -0.89076       -0.55139
C         -5.51781        1.09728       -0.05723
H         -5.64947        1.46366       -1.07698
H         -6.45848        1.25987        0.48290
C         -4.48104        1.97276        0.59545
O         -3.84380        2.83692        0.02013
O         -4.26298        1.79717        1.91210
H         -4.82560        1.09252        2.28284
C         -2.66525       -0.56827        0.06617
C         -2.69622       -1.33645        1.41932
H         -3.19302       -0.74327        2.19361
H         -3.27644       -2.26141        1.31044
C         -1.22519       -1.64407        1.79486
H         -1.01393       -2.71774        1.71040
H         -0.98479       -1.34732        2.82068
C         -0.41451       -0.85945        0.76141
C         -1.27378       -0.93600       -0.52059
C         -0.66993        0.03089       -1.55948
C          0.81395       -0.27069       -1.79264
H          0.88556       -1.22624       -2.32455
H          1.19333        0.49643       -2.47712
C          1.67205       -0.30800       -0.51559
C          1.04695       -1.23953        0.54987
C          1.83610       -1.23317        1.86190
C          3.32903       -1.46638        1.62784
H          3.86622       -1.32949        2.57717
H          3.45399       -2.52103        1.35249
C          3.95225       -0.57714        0.54216
C          3.16202       -0.66566       -0.79271
C          3.81993        0.29368       -1.80808
H          4.82403       -0.10005       -2.02614
H          3.27398        0.27142       -2.75730
C          3.97082        1.73231       -1.31544
H          4.46094        2.34427       -2.08188
H          2.99030        2.18450       -1.11100
C          4.79604        1.74505       -0.04094
C          4.14176        0.87362        1.02186
H          3.18280        1.32982        1.28837
H          4.76108        0.87142        1.93001
O          4.91382        3.10360        0.39905
H          5.44833        3.11444        1.20967
C          3.30333       -2.07951       -1.38259
H          4.36519       -2.34803       -1.44233
H          2.89868       -2.12337       -2.40002
H          2.80157       -2.85106       -0.79239
O          1.58380        0.00903        2.53596
H          2.22590        0.09586        3.25809
O         -0.75485        1.40423       -1.15098
H         -1.68967        1.66707       -1.12709
C         -1.31778       -2.35095       -1.11899
H         -0.32094       -2.75522       -1.31602
H         -1.86238       -2.34962       -2.07043
H         -1.82964       -3.05039       -0.44933
H         -3.98991       -1.92260       -0.92010
H         -2.61836        0.50356        0.29892
H         -0.43460        0.19648        1.06799
H         -1.18811       -0.07460       -2.52013
H          1.65047        0.70500       -0.08894
H          1.08476       -2.27766        0.19274
H          1.45432       -2.04586        2.49785
H          4.95964       -0.97283        0.33665
H          5.80208        1.35769       -0.26595
