45
id_623_cb.log	Energy: -848547.6571868
C         -5.11156        1.00432        0.07909
H         -5.96322        0.36925       -0.19177
H         -5.05318        1.05614        1.17108
H         -5.30166        2.01043       -0.30715
C         -3.81565        0.44399       -0.50435
C         -2.64453        1.33154       -0.07823
H         -1.68931        0.97331       -0.47829
H         -2.56632        1.37163        1.01459
H         -2.79721        2.35005       -0.45027
C         -3.92317        0.40371       -2.03287
H         -4.09583        1.40786       -2.43460
H         -3.00773        0.01299       -2.48950
H         -4.75988       -0.23551       -2.33773
N         -3.64223       -0.90838        0.07526
H         -4.49291       -1.43479       -0.11538
C         -2.48653       -1.67275       -0.40557
H         -2.77323       -2.47985       -1.08810
H         -1.80476       -1.01542       -0.95006
C         -1.73327       -2.26292        0.79911
C         -0.29928       -2.60450        0.45692
H          0.21568       -3.05282        1.31195
H         -0.25230       -3.29197       -0.39419
O          0.34941       -1.36918        0.12208
C          1.66629       -1.40991       -0.07523
C          2.42895       -0.17268       -0.22164
N          3.69394       -0.39406       -0.45211
S          3.93423       -2.03844       -0.48246
N          2.36415       -2.49715       -0.17639
N          1.86474        1.09466       -0.18390
C          1.07198        1.38285        1.03206
H          1.73010        1.37430        1.91359
H          0.29870        0.62503        1.16493
C          0.42627        2.75016        0.90511
H         -0.28188        2.75813        0.06455
H         -0.11015        2.99241        1.82551
O          1.40214        3.76266        0.70823
C          2.12023        3.50677       -0.48969
H          1.43016        3.52564       -1.34557
H          2.85010        4.31096       -0.60499
C          2.83482        2.16987       -0.42626
H          3.58889        2.19234        0.37474
H          3.34766        1.98189       -1.37201
O         -1.72881       -1.32116        1.85820
H         -2.58881       -0.86009        1.73907
H         -2.22400       -3.19365        1.11994
