44
id_609_ca.log	Energy: -533701.8571456
C          2.68065       -0.63287        2.06436
H          3.30038       -1.51784        2.26034
H          3.11742        0.21479        2.60630
H          1.68923       -0.82649        2.48717
C          2.62051       -0.33873        0.56681
C          1.97183       -1.50894       -0.19330
H          2.44836       -2.44874        0.11192
H          2.15858       -1.40000       -1.27092
C          0.45716       -1.60090        0.02096
H          0.22389       -1.81486        1.07353
H          0.07851       -2.44479       -0.56419
C         -0.23573       -0.29505       -0.39202
C         -1.75523       -0.32819       -0.25409
C         -2.47662       -1.49364       -0.55707
H         -1.94809       -2.38459       -0.88318
C         -3.86235       -1.55749       -0.45988
H         -4.40158       -2.47030       -0.69640
C         -4.56345       -0.42422       -0.05085
C         -3.87783        0.74914        0.24013
H         -4.43579        1.63277        0.54721
C         -2.48192        0.80989        0.14178
C         -1.80229        2.11998        0.48756
H         -2.38405        2.94876        0.06841
H         -1.82847        2.24633        1.57899
C         -0.35230        2.17470        0.01774
H          0.15247        3.03915        0.46661
H         -0.31261        2.30605       -1.07295
C          0.36207        0.87984        0.39657
C          1.88197        0.97689        0.24247
C          2.39337        1.38441       -1.16211
H          1.71034        1.03932       -1.94538
H          2.45516        2.47280       -1.25405
C          3.77542        0.70672       -1.31915
H          3.76501       -0.02939       -2.13084
H          4.57680        1.41845       -1.53611
C          4.01936       -0.01956        0.00624
O          4.86302       -1.15004       -0.20701
H          5.08156       -1.53891        0.65564
O         -5.93462       -0.51647        0.04230
H         -6.29756        0.32756        0.35941
H         -0.00847       -0.13364       -1.45863
H          0.15477        0.68769        1.46368
H          2.23366        1.73526        0.95910
H          4.51560        0.66091        0.71505
