53
id_648_ca.log	Energy: -688327.1608512
C          5.65093       -1.71570       -0.36711
H          5.69306       -2.63199       -0.96105
H          5.86238       -1.97598        0.67470
H          6.44313       -1.04680       -0.71765
C          4.28342       -1.05302       -0.49512
H          3.49594       -1.73869       -0.15945
H          4.07710       -0.80767       -1.54378
C          4.22645        0.21993        0.33168
H          4.95697        0.95860       -0.00629
H          4.38183        0.02351        1.39504
N          2.87976        0.85226        0.20278
H          2.15402        0.18528        0.49650
C          2.70620        2.12260        0.96511
H          2.80564        1.89292        2.02756
H          3.51747        2.78360        0.65552
C          1.35700        2.77208        0.64783
C          0.17002        2.05618        1.26494
H         -0.75764        2.58764        1.02104
H          0.28669        1.99601        2.35209
O          0.14192        0.74738        0.69501
C         -0.76592       -0.15337        1.16617
C         -1.72661        0.17071        2.12270
H         -1.81222        1.18287        2.49979
C         -2.58621       -0.81927        2.59793
H         -3.33827       -0.55210        3.33373
C         -2.48062       -2.13266        2.15068
H         -3.14464       -2.90043        2.53253
C         -1.51419       -2.44890        1.20139
H         -1.42340       -3.46264        0.82279
C         -0.66942       -1.46890        0.67636
C          0.24618       -1.88893       -0.43194
O          0.79855       -2.97940       -0.36884
C          0.36095       -1.04946       -1.68549
H          0.65257       -0.02355       -1.44811
H          1.14007       -1.50510       -2.30189
C         -0.97486       -1.02489       -2.47132
H         -1.34127       -2.04969       -2.59371
H         -0.74548       -0.64098       -3.47082
C         -2.04202       -0.16552       -1.83406
C         -1.89337        1.22485       -1.79540
H         -1.03828        1.68316       -2.28918
C         -2.83021        2.02749       -1.14782
H         -2.69343        3.10476       -1.12393
C         -3.94523        1.44795       -0.54170
H         -4.67645        2.07047       -0.03524
C         -4.11992        0.06616       -0.60020
H         -4.98836       -0.39377       -0.13761
C         -3.17344       -0.73191       -1.24115
H         -3.30371       -1.81110       -1.26849
O          1.21304        2.90376       -0.75885
H          0.65873        2.17275       -1.07880
H          1.38504        3.77854        1.07649
H          2.69137        1.04832       -0.79087
