36
id_628_ca.log	Energy: -905067.5519019
C         -1.16300        1.73724       -1.81240
H         -0.16646        1.81212       -2.24922
H         -1.66330        2.70026       -1.90350
H         -1.73146        0.95767       -2.33319
N         -0.98007        1.40538       -0.38266
C         -0.13019        0.27778       -0.13288
C         -0.67937       -0.95354        0.04648
C         -2.13544       -1.20072       -0.02999
C         -2.64666       -2.46680       -0.33513
H         -1.97730       -3.29938       -0.52943
C         -4.02349       -2.66061       -0.43118
H         -4.40357       -3.64753       -0.67459
C         -4.91138       -1.60365       -0.23460
H         -5.98109       -1.76537       -0.31750
C         -4.42467       -0.33097        0.06174
H         -5.09784        0.50818        0.20865
C         -3.05270       -0.15728        0.16521
S         -2.35130        1.41715        0.54897
O         -1.94041        1.43148        1.95162
O         -3.22655        2.48062        0.06512
O          0.11895       -2.02356        0.26317
H         -0.34445       -2.73940        0.73430
C          1.32075        0.64475       -0.14729
O          1.64654        1.82288       -0.30984
N          2.22398       -0.36017        0.00520
H          1.86738       -1.30055        0.15120
C          3.62560       -0.27670        0.02163
C          4.35380        0.90425       -0.16592
H          3.85528        1.84648       -0.33558
C          5.74137        0.81884       -0.12671
H          6.33489        1.71709       -0.26897
C          6.35680       -0.41053        0.09264
H          7.43576       -0.51229        0.12895
C          5.53726       -1.52044        0.26526
H          5.96667       -2.50339        0.43831
N          4.20266       -1.46657        0.23251
