67
id_660_cb.log	Energy: -1157452.2701350
C         -5.49986        0.03152        1.69503
H         -6.11068        0.93844        1.76731
H         -5.48982       -0.30259        0.66278
H         -5.96110       -0.75339        2.30182
N         -4.15589        0.28887        2.19244
C         -4.04596        0.57853        3.61922
H         -3.35317       -0.11510        4.10279
H         -5.03221        0.47245        4.07071
H         -3.68455        1.59824        3.78165
C         -3.01723        0.35714        1.47178
O         -1.95090        0.63522        2.03946
C         -3.05930        0.18130       -0.07242
C         -1.61155        0.34291       -0.61664
H         -1.19018        1.26479       -0.21315
H         -1.67857        0.47179       -1.70213
C         -0.69109       -0.84170       -0.31095
H         -0.90545       -1.64917       -1.01864
H         -0.89660       -1.24411        0.69649
N          0.72655       -0.49634       -0.44626
C          1.51311       -1.73250       -0.51671
H          1.35145       -2.34808        0.38658
H          1.16275       -2.31752       -1.37272
C          2.99992       -1.44268       -0.68213
H          3.16706       -0.92695       -1.63336
H          3.56445       -2.38131       -0.70505
C          3.53678       -0.56762        0.45676
C          2.63572        0.66727        0.60311
H          2.76752        1.32184       -0.26434
H          2.94463        1.23085        1.49230
C          1.16921        0.27259        0.72272
H          1.01516       -0.31355        1.64721
H          0.56253        1.17666        0.81445
C          4.98586       -0.16690        0.19403
C          5.31212        0.63255       -0.90848
H          4.53362        0.97435       -1.58503
C          6.62711        1.00197       -1.16767
H          6.87006        1.62077       -2.02494
C          7.62951        0.56363       -0.30848
C          7.34031       -0.23124        0.79161
H          8.13395       -0.56724        1.45054
C          6.01591       -0.59292        1.03342
H          5.78937       -1.22035        1.88811
Cl         9.29073        1.02196       -0.62594
O          3.43982       -1.36670        1.63369
H          3.59138       -0.78606        2.39840
C         -3.53276       -1.20750       -0.51520
C         -3.65349       -1.48364       -1.88484
H         -3.49601       -0.68968       -2.60996
C         -3.96301       -2.76295       -2.33565
H         -4.05527       -2.94754       -3.40157
C         -4.14421       -3.80348       -1.42538
H         -4.38323       -4.80275       -1.77552
C         -4.00558       -3.54907       -0.06489
H         -4.13044       -4.35053        0.65675
C         -3.69904       -2.26464        0.38442
H         -3.58588       -2.09712        1.45172
C         -3.89588        1.36672       -0.60064
C         -3.48190        2.66048       -0.25180
H         -2.61053        2.79488        0.38454
C         -4.18075        3.78247       -0.68583
H         -3.83802        4.77164       -0.39796
C         -5.31668        3.63624       -1.48006
H         -5.86366        4.50937       -1.82174
C         -5.74853        2.35783       -1.81876
H         -6.64010        2.22526       -2.42409
C         -5.04798        1.23406       -1.38015
H         -5.42147        0.25022       -1.64405
