41
id_680_cb.log	Energy: -720108.9638761
C          0.15461       -2.11804       -0.37690
H          0.47232       -3.14014       -0.55569
C          1.11200       -1.10761       -0.16067
C          0.65868        0.20930        0.02395
C         -0.71939        0.49999        0.03935
H         -1.04301        1.51544        0.22021
C         -1.66730       -0.49717       -0.16252
C         -1.17442       -1.80779       -0.38695
F         -2.06577       -2.78929       -0.66280
N         -3.04758       -0.25680       -0.20247
C         -3.44727        1.15308       -0.20804
H         -3.20258        1.63067        0.75709
H         -2.89977        1.67708       -0.99730
C         -4.94484        1.27230       -0.46105
H         -5.17421        0.89072       -1.46255
H         -5.22391        2.32893       -0.43513
N         -5.76668        0.53646        0.50463
H         -5.60753        0.95434        1.42362
C         -5.30935       -0.85505        0.56989
H         -5.85317       -1.37302        1.36432
H         -5.56073       -1.34127       -0.37991
C         -3.81560       -0.99185        0.82427
H         -3.53397       -2.04509        0.81555
H         -3.57094       -0.57878        1.81797
N          1.59599        1.22132        0.21181
C          2.90787        0.91610        0.26594
H          3.56870        1.75633        0.44677
C          3.43150       -0.34574        0.12148
C          2.54032       -1.45371       -0.13507
O          2.90438       -2.63341       -0.34199
C          4.93271       -0.48028        0.25745
O          5.40202       -1.58719        0.63871
O          5.62578        0.54759        0.00455
C          1.15918        2.58853        0.42810
H          0.76101        2.75804        1.42454
C          0.53414        3.33452       -0.71105
H          0.46598        2.80976       -1.65928
H         -0.30050        3.98646       -0.47513
C          1.91054        3.70102       -0.23143
H          2.74425        3.43580       -0.87375
H          2.04024        4.60995        0.34545
