45
id_669_ca.log	Energy: -838015.0097329
C         -4.44674        3.03256       -0.95137
H         -4.21933        3.63617       -0.06996
H         -5.18181        3.57579       -1.55013
H         -3.53737        2.91870       -1.54931
C         -5.02704        1.67817       -0.59754
H         -5.29296        1.12804       -1.50230
H         -5.91099        1.75024        0.04051
N         -4.04346        0.81718        0.14987
C         -3.86224        1.24695        1.58120
H         -3.87724        2.33700        1.59310
H         -4.73527        0.87641        2.12355
C         -2.55364        0.72397        2.14371
H         -2.43726        1.09976        3.16304
H         -2.51952       -0.36831        2.18092
H         -1.70714        1.08341        1.54926
C         -4.40790       -0.63747        0.04939
H         -5.49631       -0.69884       -0.00420
H         -4.06926       -1.13374        0.95760
C         -3.75254       -1.27902       -1.16641
H         -4.02526       -2.33715       -1.17596
H         -4.10645       -0.82576       -2.09403
N         -2.30507       -1.14019       -1.12852
H         -1.86781       -0.46242       -1.74082
C         -1.56226       -1.77651       -0.19490
O         -2.07172       -2.54598        0.62594
C         -0.09529       -1.48368       -0.18094
C          0.57598       -1.62877        1.03564
H          0.02356       -1.94382        1.91488
C          1.93282       -1.34993        1.12543
H          2.45512       -1.43695        2.07374
C          2.63360       -0.95969       -0.01649
C          1.97908       -0.84266       -1.24354
H          2.54092       -0.57734       -2.13149
C          0.61412       -1.09076       -1.31940
H          0.12403       -1.01438       -2.28519
N          4.04204       -0.70731        0.05686
H          4.44441       -1.09327        0.91658
S          4.47457        0.91949       -0.04195
O          4.00534        1.65782        1.13478
O          4.03727        1.40654       -1.34952
C          6.23617        0.79319        0.01197
H          6.57126        0.21448       -0.84917
H          6.52902        0.31637        0.94936
H          6.62339        1.81364       -0.03058
H         -3.12716        0.93716       -0.30571
