65
id_631_cb.log	Energy: -1085896.7318765
C          3.97118        0.44375       -0.32318
H          4.79005        1.08342       -0.00965
C          3.93615       -0.89262        0.04674
H          4.73872       -1.31561        0.64155
C          2.85293       -1.68551       -0.32619
C          1.82773       -1.15601       -1.10129
C          1.89922        0.17195       -1.52975
H          1.09441        0.55382       -2.14770
C          2.94458        0.98785       -1.10409
O          3.04028        2.31749       -1.37995
C          1.90477        2.98313       -1.95387
H          2.28017        3.98616       -2.17027
H          1.64407        2.50722       -2.90612
C          0.69608        3.07667       -1.02859
H         -0.02618        3.72239       -1.54367
H          0.20463        2.10502       -0.91106
C          0.99621        3.68319        0.34684
H          0.04735        3.98988        0.80263
H          1.58839        4.59580        0.20853
N          1.68902        2.84271        1.32706
H          2.58164        2.55208        0.92972
C          0.94606        1.63664        1.69332
H         -0.05384        1.94625        2.02764
H          0.79570        0.94129        0.84963
C          1.64464        0.90390        2.83168
H          1.72179        1.57428        3.69469
H          2.66747        0.63856        2.53112
C          0.92624       -0.35986        3.26703
H         -0.13579       -0.14794        3.45850
H          1.36878       -0.73887        4.19473
O          1.05798       -1.34824        2.24182
H          0.77890       -2.20054        2.61254
C          0.53082       -1.85092       -1.42333
O          0.16613       -2.02089       -2.59043
N         -0.20719       -2.14512       -0.33964
H          0.16013       -1.83078        0.56026
C         -1.63587       -2.41513       -0.42503
H         -1.83410       -2.85784       -1.40488
H         -1.89498       -3.15540        0.33981
C         -2.48768       -1.15417       -0.22908
C         -2.15297       -0.08395       -1.28439
H         -1.09644        0.20777       -1.18895
H         -2.29058       -0.50163       -2.29129
C         -3.04265        1.15353       -1.09324
H         -2.78995        1.90229       -1.85383
C         -4.51801        0.74830       -1.23157
H         -5.16144        1.62923       -1.10966
H         -4.70255        0.34160       -2.23445
C         -4.86442       -0.30461       -0.16759
H         -5.91603       -0.59787       -0.26717
C         -3.97121       -1.53857       -0.36434
H         -4.14572       -1.97576       -1.35731
H         -4.21943       -2.30705        0.38102
C         -4.62170        0.28212        1.23181
H         -5.26660        1.15657        1.38782
H         -4.88129       -0.45947        1.99857
C         -3.14631        0.68664        1.37176
H         -2.96731        1.10143        2.37149
C         -2.80387        1.73926        0.30623
H         -1.75423        2.04890        0.40765
H         -3.42526        2.63286        0.44983
C         -2.25717       -0.54927        1.16878
H         -2.47428       -1.30538        1.93745
H         -1.20246       -0.26261        1.27971
Cl         2.81412       -3.35694        0.18682
