41
id_619_cb.log	Energy: -587666.0538116
C         -1.54894       -1.42086        1.73347
H         -1.35268       -0.69707        2.52985
H         -0.66717       -1.45777        1.08322
H         -1.67878       -2.40604        2.18436
C         -2.78268       -1.08231        0.96720
N         -3.74426       -1.93340        0.65791
C         -4.65835       -1.20619       -0.07299
H         -5.56342       -1.65539       -0.45692
C         -4.24616        0.08841       -0.19816
H         -4.67761        0.95383       -0.67995
N         -3.05496        0.16641        0.48875
C         -2.17565        1.32520        0.48330
H         -2.78097        2.21734        0.66600
H         -1.46879        1.22052        1.31104
C         -1.43553        1.48564       -0.85943
C         -0.59795        2.77092       -0.88160
H         -0.20777        2.90856       -1.89527
H         -1.24089        3.62794       -0.65964
C          0.58282        2.74621        0.09947
H          0.23872        2.87349        1.13431
H          1.26033        3.57873       -0.11284
C          1.29507        1.44125       -0.02241
C          0.76082        0.29571       -0.60293
C          1.76086       -0.73805       -0.50257
C          1.83058       -2.08809       -0.87160
H          0.99307       -2.56764       -1.36715
C          2.99399       -2.79273       -0.59123
H          3.06540       -3.83917       -0.87101
C          4.08559       -2.17764        0.04777
H          4.98076       -2.75718        0.24983
C          4.03927       -0.84230        0.42794
H          4.87848       -0.36384        0.92325
C          2.86546       -0.14388        0.14701
N          2.54786        1.18142        0.42769
C          3.45227        2.10249        1.09508
H          2.92784        3.03335        1.30637
H          4.31886        2.30937        0.46219
H          3.79087        1.66454        2.03673
C         -0.59000        0.24234       -1.10196
O         -1.08187       -0.76315       -1.62387
H         -2.19046        1.52394       -1.65206
