48
id_60_ca.log	Energy: -728477.7865236
C         -5.13645        1.42429       -1.08714
H         -6.15265        1.04572       -0.95192
H         -5.10771        2.02784       -1.99770
H         -4.88953        2.07341       -0.23070
N         -4.20859        0.30498       -1.21094
C         -4.24994       -0.49225        0.01197
H         -3.99824        0.12029        0.89854
H         -5.25949       -0.88529        0.15698
C         -3.29517       -1.66682       -0.06180
H         -3.51119       -2.32328       -0.90726
H         -3.29330       -2.23795        0.86785
N         -1.89744       -1.14709       -0.26940
C         -1.85275       -0.31082       -1.51723
H         -0.83920        0.07985       -1.63309
H         -2.08725       -0.98304       -2.34575
C         -2.85417        0.81900       -1.39101
H         -2.80815        1.41770       -2.30417
H         -2.55429        1.47095       -0.54717
C         -0.91283       -2.26613       -0.27921
H         -0.98457       -2.78330        0.67999
H         -1.20837       -2.94236       -1.08190
C          0.54119       -1.88287       -0.55583
O          1.16921       -2.53688       -1.37177
N          1.10760       -0.84007        0.13412
C          2.47834       -0.49023       -0.09524
C          3.47827       -1.43537        0.12078
H          3.20396       -2.43287        0.44645
C          4.80752       -1.09032       -0.09237
H          5.58541       -1.82787        0.07510
C          5.13969        0.19670       -0.51585
H          6.17748        0.46715       -0.67825
C          4.13891        1.13356       -0.73216
H          4.38149        2.13624       -1.06716
C          2.79686        0.80292       -0.51671
C          1.79113        1.86774       -0.80696
O          2.00298        2.70783       -1.67630
N          0.64359        1.94941       -0.06267
H          0.09925        2.78579       -0.26432
C          0.24270        1.22837        1.06747
C          0.45154       -0.14920        1.19575
N          0.05068       -0.86778        2.23937
C         -0.64747       -0.24611        3.19414
H         -0.98319       -0.86118        4.02271
C         -0.94494        1.11389        3.14765
H         -1.52032        1.57501        3.94179
C         -0.48820        1.86291        2.07453
H         -0.69561        2.92587        1.99554
H         -1.70841       -0.52792        0.53111
