55
id_650_ca.log	Energy: -665292.3160670
C          2.85642        3.38150        0.25328
H          2.49400        4.06794        1.02209
H          2.10587        3.32851       -0.54368
H          3.78556        3.78410       -0.16094
C          3.07396        2.01165        0.87091
H          3.86002        2.04676        1.63008
C          1.79197        1.41436        1.42892
H          1.32848        2.14012        2.10224
H          1.96396        0.49351        1.99051
H          1.09020        1.20359        0.61267
N          3.60823        1.10142       -0.21510
H          4.36685        1.58606       -0.71017
C          4.11437       -0.22751        0.25367
H          5.18572       -0.12527        0.42301
H          3.62535       -0.46992        1.19614
C          3.84304       -1.33724       -0.75688
C          2.35792       -1.55216       -1.01409
H          2.22902       -2.45186       -1.62913
H          1.92297       -0.70674       -1.56643
O          1.71297       -1.70365        0.24043
C          0.34490       -1.70259        0.24985
C         -0.43979       -1.78514       -0.90172
H          0.01258       -1.86575       -1.88360
C         -1.82876       -1.76329       -0.78298
H         -2.43613       -1.81221       -1.68281
C         -2.45048       -1.66556        0.46007
C         -1.64796       -1.59670        1.60276
H         -2.11414       -1.51304        2.58163
C         -0.26197       -1.61658        1.50638
H          0.36557       -1.55591        2.39034
C         -3.96046       -1.65652        0.55663
H         -4.27485       -1.33756        1.55957
H         -4.34579       -2.66961        0.39598
O         -4.57293       -0.84781       -0.43853
C         -4.84595        0.48298       -0.02734
H         -5.37340        0.94728       -0.86581
H         -5.51487        0.47857        0.84477
C         -3.61567        1.29899        0.31298
H         -3.06383        0.83834        1.14511
H         -3.94438        2.29433        0.64329
O         -2.78891        1.38693       -0.83258
C         -1.42500        1.68591       -0.53068
H         -1.05887        0.90888        0.16076
C         -0.65917        1.60390       -1.83885
H         -0.83799        0.64459       -2.33291
H          0.41646        1.70677       -1.65515
H         -0.97164        2.40917       -2.51278
C         -1.27930        3.05635        0.11951
H         -0.22004        3.30366        0.24468
H         -1.75270        3.09442        1.10510
H         -1.73806        3.81949       -0.51923
O          4.43513       -2.48243       -0.17150
H          4.36669       -3.20976       -0.81111
H          4.31568       -1.09322       -1.71781
H          2.85539        0.98638       -0.90784
