40
id_695_ca.log	Energy: -706583.9283076
C          0.13873        3.27490        0.64668
H         -0.59908        2.61798        1.11594
H          0.97158        3.42396        1.34102
H         -0.33160        4.24380        0.45490
C          0.63682        2.68957       -0.66424
H          1.40175        3.32325       -1.11523
H         -0.17302        2.56161       -1.38132
N          1.26460        1.36650       -0.45707
C          2.58286        1.28754       -0.24602
H          3.12974        2.22335       -0.30846
C          3.24514        0.11042        0.03148
C          2.51390       -1.12547        0.12202
O          3.06608       -2.23444        0.36881
C          1.08745       -1.01249       -0.09051
C          0.47817        0.22029       -0.36619
N         -0.83363        0.38255       -0.54532
C         -1.65262       -0.66783       -0.48872
C         -1.09141       -1.96882       -0.27282
C          0.23865       -2.14157       -0.06528
H          0.64442       -3.13755        0.08361
F         -1.88915       -3.05329       -0.35295
N         -2.98582       -0.48172       -0.72679
C         -3.99325       -1.17065        0.10431
H         -4.90506       -1.25571       -0.49690
H         -3.66355       -2.17351        0.36563
C         -4.27108       -0.35814        1.36799
H         -3.35768       -0.32472        1.97547
H         -5.04465       -0.86267        1.95383
N         -4.69431        1.02057        1.10252
H         -5.58640        0.97559        0.60579
C         -3.72838        1.68140        0.21566
H         -2.79677        1.82727        0.77367
H         -4.11284        2.66757       -0.05905
C         -3.44090        0.87834       -1.05049
H         -2.69795        1.37340       -1.67593
H         -4.36505        0.76613       -1.62907
C          4.70793        0.16680        0.22987
O          5.36371        1.19780        0.16446
O          5.30886       -0.99478        0.49303
H          4.61143       -1.71972        0.50646
