77
id_667_ca.log	Energy: -1003030.1175114
C         -2.28119        4.43921        1.04551
H         -1.70435        5.36469        1.12943
H         -2.84553        4.29949        1.97258
H         -2.99151        4.54534        0.22136
C         -1.34866        3.23401        0.85378
C         -0.30043        3.24312        1.98086
H         -0.80691        3.22271        2.95083
H          0.28821        4.16433        1.92321
H          0.38101        2.39051        1.92143
C         -2.17665        1.94744        0.80516
C         -3.14913        1.80618       -0.19944
H         -3.25874        2.58072       -0.95670
C         -3.98554        0.69805       -0.23752
H         -4.73686        0.61677       -1.02012
C         -3.86780       -0.31480        0.72391
C         -2.88688       -0.19160        1.70492
H         -2.77644       -0.97257        2.45459
C         -2.04702        0.92757        1.74694
H         -1.30136        0.99362        2.53325
C         -4.78447       -1.51947        0.69111
C         -4.67081       -2.35617       -0.58117
H         -5.39043       -3.17637       -0.48801
H         -4.98240       -1.74798       -1.44037
C         -3.27738       -2.94705       -0.82561
H         -3.37932       -3.82171       -1.47942
H         -2.85938       -3.29916        0.12524
C         -2.32839       -1.95719       -1.49184
H         -1.95966       -1.20475       -0.79619
H         -2.82212       -1.44751       -2.32444
N         -1.13345       -2.64369       -2.09170
H         -1.49767       -3.33607       -2.75740
C         -0.29151       -3.39773       -1.09865
H         -0.93937       -4.10497       -0.58037
H          0.43205       -3.96222       -1.69309
C          0.41265       -2.44904       -0.14351
H         -0.31718       -1.92149        0.48385
H          1.02170       -3.06690        0.52411
C          1.29078       -1.44720       -0.90665
H          2.05820       -2.02795       -1.43523
C          0.44312       -0.71332       -1.95438
H          1.06376       -0.07133       -2.58714
H         -0.29046       -0.06019       -1.46666
C         -0.27105       -1.69084       -2.87467
H          0.44378       -2.31073       -3.42282
H         -0.92222       -1.18200       -3.58745
C          2.00107       -0.46875        0.06753
C          2.94906        0.51179       -0.64186
C          3.21376        1.74911       -0.04123
H          2.71444        2.01190        0.88786
C          4.10505        2.65067       -0.62070
H          4.29293        3.60566       -0.13783
C          4.75296        2.32863       -1.81380
H          5.44637        3.03024       -2.26843
C          4.50160        1.09718       -2.41662
H          4.99811        0.83274       -3.34605
C          3.60839        0.19586       -1.83475
H          3.43239       -0.75571       -2.32871
C          2.82026       -1.26417        1.09075
C          2.54752       -1.19097        2.45818
H          1.74532       -0.55527        2.81653
C          3.29928       -1.93469        3.37250
H          3.07293       -1.86434        4.43287
C          4.32898       -2.76197        2.93125
H          4.91207       -3.34004        3.64229
C          4.60660       -2.83979        1.56440
H          5.40831       -3.47927        1.20581
C          3.85988       -2.09603        0.65425
H          4.09429       -2.16435       -0.40573
O          1.01762        0.25683        0.79404
H          0.62852        0.94364        0.21421
O         -6.15679       -1.11653        0.76963
H         -6.27655       -0.59816        1.58212
C         -0.55207        3.32207       -0.44200
O          0.13310        2.40779       -0.87425
O         -0.61792        4.50070       -1.05975
H         -4.54421       -2.15797        1.55215
H         -0.03755        4.48141       -1.84711
