29
id_674_cb.log	Energy: -714937.6239859
C          3.74503        0.77833        0.68639
H          4.48780        1.46836        1.07369
C          4.08003       -0.04588       -0.40975
H          5.07424        0.02833       -0.83829
C          3.16983       -0.93939       -0.94856
H          3.42252       -1.57158       -1.79361
C          1.89516       -0.99923       -0.37028
C          1.58039       -0.17313        0.72923
C          2.49388        0.73004        1.27910
H          2.23033        1.36126        2.12082
N          0.27711       -0.48478        1.04710
H         -0.32530       -0.05825        1.74506
C         -0.11502       -1.41095        0.13772
N          0.79822       -1.78026       -0.71552
S         -1.81698       -1.95648        0.13059
O         -2.35381       -1.48028        1.47128
C         -2.41021       -0.73443       -1.12648
H         -2.03317       -1.08411       -2.09060
H         -3.49870       -0.83333       -1.08713
C         -1.92274        0.63843       -0.79162
C         -2.52064        1.37079        0.23511
H         -3.41989        0.99963        0.71426
C         -1.92639        2.56535        0.63260
H         -2.35967        3.15434        1.43470
C         -0.76798        2.98378       -0.01208
H         -0.26277        3.90120        0.26888
C         -0.26772        2.19845       -1.04837
H          0.62459        2.50755       -1.58731
N         -0.82383        1.05068       -1.44276
