42
id_681_cb.log	Energy: -720366.5604413
C         -0.10979       -2.12874       -0.31751
H         -0.42660       -3.15397       -0.47331
C         -1.06821       -1.11930       -0.12587
C         -0.62370        0.20027        0.03617
C          0.74836        0.49997        0.04618
H          1.06671        1.51928        0.21151
C          1.70148       -0.49750       -0.13678
C          1.21930       -1.81500       -0.33723
F          2.11240       -2.79287       -0.58112
N          3.07742       -0.24930       -0.18856
C          3.46986        1.16155       -0.21278
H          2.90563        1.67487       -0.99711
H          3.23878        1.64931        0.75015
C          4.96285        1.28371       -0.49190
H          5.23807        2.34146       -0.48398
H          5.17269        0.89211       -1.49341
N          5.80571        0.55993        0.46366
H          5.63463        0.97334        1.38283
C          5.35641       -0.83334        0.53410
H          5.58566       -1.31347       -0.42383
H          5.92131       -1.35401        1.31171
C          3.86961       -0.98029        0.82169
H          3.64793       -0.57159        1.82166
H          3.59142       -2.03351        0.81689
N         -1.57128        1.21516        0.21288
C         -2.87527        0.91496        0.27088
H         -3.53077        1.75941        0.44479
C         -3.38879       -0.35595        0.12440
C         -2.49524       -1.47803       -0.10376
O         -2.85500       -2.65327       -0.26352
C         -4.84490       -0.54290        0.20410
O         -5.43398       -1.60363        0.10169
O         -5.51588        0.61069        0.41111
H         -6.46541        0.39098        0.45477
C         -1.13483        2.58819        0.39790
H         -0.72976        2.77558        1.38750
C         -1.88956        3.68503       -0.28220
H         -2.72707        3.40595       -0.91294
H         -2.01607        4.60580        0.27518
C         -0.51834        3.30724       -0.76201
H          0.31825        3.96275       -0.54643
H         -0.45668        2.76155       -1.69812
