47
id_62_ca.log	Energy: -728208.0287495
C         -6.45313       -0.98006        0.79154
H         -6.56184       -1.32323        1.82357
H         -6.51691       -1.85494        0.12282
H         -7.27996       -0.30415        0.55861
N         -5.18388       -0.27410        0.63967
C         -5.04364        0.17644       -0.74354
H         -5.86075        0.86018       -0.98840
H         -5.09962       -0.67829       -1.44324
C         -3.73651        0.91171       -0.95883
H         -3.64954        1.79229       -0.31711
H         -3.61541        1.20198       -2.00383
N         -2.58812        0.01248       -0.60843
H         -2.61253       -0.80983       -1.23260
C         -2.74272       -0.49516        0.79813
H         -1.92065       -1.18504        0.99589
H         -2.66026        0.37702        1.45108
C         -4.08258       -1.18532        0.94515
H         -4.11118       -2.07394        0.28721
H         -4.17331       -1.53254        1.97772
C         -1.28035        0.68244       -0.81928
H         -1.32163        1.22657       -1.76666
H         -1.11976        1.39100       -0.00341
C         -0.20022       -0.38717       -0.90120
O         -0.50194       -1.54814       -1.18398
N          1.06604        0.01471       -0.66106
C          2.15348       -0.91709       -0.65021
C          2.58432       -1.51577       -1.83315
H          2.06750       -1.29589       -2.76284
C          3.66726       -2.38819       -1.79644
H          4.00943       -2.86232       -2.71123
C          4.31275       -2.64880       -0.58415
H          5.16303       -3.32362       -0.55628
C          3.86336       -2.05379        0.59020
H          4.35112       -2.26889        1.53643
C          2.77470       -1.17332        0.57298
C          2.27095       -0.58384        1.86899
O          2.24234       -1.38504        2.85243
N          1.94194        0.69140        2.00878
C          1.90317        1.60666        0.97550
C          1.42920        1.36089       -0.33016
N          1.31477        2.26458       -1.29768
C          1.64956        3.52658       -1.01654
H          1.53758        4.24913       -1.81907
C          2.12283        3.90793        0.23902
H          2.38763        4.94318        0.42889
C          2.24327        2.94893        1.23211
H          2.59453        3.21489        2.22517
