60
id_622_ca.log	Energy: -780075.7665043
C          3.58091        1.88860        0.46741
H          3.78382        2.94856        0.55458
C          3.11252        1.13462        1.53590
H          2.93680        1.59161        2.50721
N          2.85421       -0.17075        1.44624
C          3.05949       -0.73741        0.24601
N          3.51986       -0.10998       -0.84851
C          3.77710        1.19201       -0.71833
H          4.15465        1.69594       -1.60496
N          2.81200       -2.10131        0.13941
C          2.50462       -2.62322       -1.19232
H          3.20705       -2.23538       -1.92629
H          2.60775       -3.71108       -1.15704
C          1.09549       -2.23570       -1.61054
H          0.82136       -2.68756       -2.56494
H          0.99351       -1.14864       -1.67894
N          0.07285       -2.68760       -0.60021
C          0.45636       -2.28190        0.79695
H          0.34468       -1.19413        0.83680
H         -0.24652       -2.74744        1.48733
C          1.88774       -2.68599        1.11021
H          1.99687       -3.77310        1.06409
H          2.13247       -2.35858        2.11767
C         -1.27305       -2.13894       -0.98504
H         -1.19199       -1.06101       -0.83999
H         -1.39035       -2.33330       -2.05416
C         -2.44801       -2.72335       -0.21665
H         -2.59308       -3.76137       -0.53119
H         -2.26500       -2.72784        0.86113
C         -3.71072       -1.89595       -0.51329
H         -4.58877       -2.54589       -0.44992
H         -3.67899       -1.51171       -1.53975
C         -3.96954       -0.74511        0.45883
H         -4.05739       -1.12681        1.47590
H         -4.90616       -0.25193        0.19543
N         -2.93668        0.30829        0.49635
C         -3.01172        1.32739       -0.45609
O         -3.83550        1.25351       -1.35406
C         -2.10622        2.52254       -0.28484
H         -2.04693        3.02121       -1.25598
H         -2.61899        3.20218        0.41010
C         -0.72926        2.15761        0.27235
C          0.12822        3.40816        0.52315
H         -0.44481        4.20964        1.00079
H          0.94018        3.12814        1.20673
C          0.70664        3.80052       -0.84893
H          0.11189        4.59606       -1.30716
H          1.72770        4.18010       -0.75125
C          0.64728        2.51448       -1.71301
H          1.62269        2.24163       -2.12561
H         -0.02760        2.65814       -2.56227
C          0.10357        1.41227       -0.78685
H          0.92642        0.88854       -0.28177
H         -0.47383        0.66719       -1.34400
C         -0.95398        1.37949        1.56217
H         -1.33962        2.05881        2.33629
H         -0.02015        0.95207        1.94317
C         -1.95392        0.25288        1.48165
O         -1.93003       -0.67311        2.27951
H          0.02970       -3.71577       -0.63115
