44
id_670_ca.log	Energy: -837748.4721116
C          6.29827        0.01657        1.95382
H          7.09472       -0.36413        1.30839
H          6.49903       -0.32671        2.97220
H          6.33338        1.11023        1.95416
C          4.93611       -0.50462        1.54053
H          4.16003       -0.20060        2.24584
H          4.92547       -1.59383        1.47489
N          4.49173        0.01467        0.20189
H          3.59988       -0.46063       -0.03141
C          5.42519       -0.32813       -0.92463
H          4.96133        0.06856       -1.83020
H          6.35511        0.21683       -0.74976
C          5.64853       -1.82284       -1.04683
H          4.69498       -2.36068       -1.08400
H          6.24903       -2.21836       -0.22351
H          6.18459       -2.01708       -1.97958
C          4.20068        1.49012        0.22683
H          3.90219        1.75309        1.24373
H          5.12805        2.01337       -0.01714
C          3.10560        1.87463       -0.75804
H          3.31326        1.47869       -1.75630
H          3.09794        2.96327       -0.82895
N          1.76768        1.45890       -0.35528
H          1.16054        2.16372        0.04404
C          1.28016        0.22760       -0.60267
O          2.03543       -0.68087       -1.01825
C         -0.15780       -0.02369       -0.35559
C         -1.11991        0.99120       -0.28675
H         -0.84451        2.03334       -0.42866
C         -2.46094        0.70387       -0.06639
H         -3.16089        1.52984       -0.01426
C         -2.90602       -0.63099        0.09546
C         -1.91892       -1.64594        0.02552
H         -2.23540       -2.67763        0.15059
C         -0.58810       -1.35163       -0.19897
H          0.13955       -2.15661       -0.24816
N         -4.20001       -1.06407        0.30912
S         -5.41901       -0.04402        0.32757
O         -6.64159       -0.83150        0.62587
O         -5.23020        1.13250        1.22373
C         -5.65320        0.61812       -1.31659
H         -6.50535        1.30056       -1.27993
H         -5.85747       -0.21650       -1.98944
H         -4.75406        1.15250       -1.62893
