39
id_653_ca.log	Energy: -494840.6352851
C         -3.36436        1.25982        1.90627
H         -2.42354        1.76928        2.13901
H         -3.51743        0.44796        2.62502
H         -4.18183        1.97689        2.01408
C         -3.35657        0.72683        0.47844
C         -3.09841        1.85013       -0.51751
H         -2.12725        2.32113       -0.33036
H         -3.87717        2.60675       -0.38975
H         -3.13626        1.50319       -1.55337
C         -4.63614       -0.03524        0.16639
H         -4.74928       -0.89996        0.82877
H         -4.66575       -0.37200       -0.87335
H         -5.48344        0.63610        0.32951
N         -2.18160       -0.24598        0.41542
H         -1.32305        0.30011        0.58139
C         -2.01980       -1.04987       -0.83406
H         -2.81616       -1.79381       -0.85003
H         -2.13371       -0.38383       -1.68851
C         -0.66631       -1.76147       -0.86355
C          0.51794       -0.80836       -0.76578
C          0.51546        0.42467       -1.42605
H         -0.33901        0.73215       -2.02287
C          1.60807        1.28316       -1.34304
H          1.60058        2.24078       -1.85610
C          2.72045        0.90902       -0.59544
C          2.75448       -0.32115        0.07183
C          1.64986       -1.16103       -0.02384
H          1.68388       -2.11751        0.49032
C          3.98024       -0.68473        0.87351
H          4.84976       -0.76660        0.20785
H          3.83174       -1.65480        1.35372
O          4.24590        0.25104        1.91392
H          4.45307        1.09266        1.47500
O          3.82885        1.70255       -0.47204
H          3.69632        2.53457       -0.95707
O         -0.62221       -2.78729        0.11370
H         -0.42372       -2.39355        0.97970
H         -0.63306       -2.28151       -1.82710
H         -2.26337       -0.89707        1.20851
