40
id_696_cb.log	Energy: -706559.4535621
C          0.14003        3.27555        0.64572
H          0.96816        3.41974        1.34588
H         -0.32642        4.24558        0.45401
H         -0.60155        2.61836        1.10773
C          0.64457        2.69000       -0.66210
H          1.41117        3.32371       -1.10971
H         -0.16209        2.56327       -1.38266
N          1.26892        1.36726       -0.45408
C          2.58856        1.28289       -0.24195
H          3.14008        2.21557       -0.30249
C          3.24665        0.10669        0.03241
C          2.51453       -1.13041        0.11948
O          3.05851       -2.23886        0.36198
C          1.08674       -1.01017       -0.09316
C          0.48013        0.22332       -0.36492
N         -0.83206        0.38864       -0.54168
C         -1.64989       -0.66182       -0.48750
C         -1.09423       -1.96554       -0.27561
C          0.23601       -2.13609       -0.06483
H          0.64211       -3.13058        0.08744
F         -1.89353       -3.04300       -0.34261
N         -2.98308       -0.47540       -0.73098
C         -3.43594        0.88646       -1.04564
H         -2.68935        1.38464       -1.66358
H         -4.35747        0.78103       -1.62930
C         -3.73006        1.67729        0.22657
H         -2.79978        1.81207        0.78984
H         -4.10646        2.66892       -0.03882
N         -4.70296        1.01277        1.10168
H         -5.58268        0.96130        0.58366
C         -4.27945       -0.36679        1.35802
H         -3.36893       -0.33722        1.96969
H         -5.05379       -0.87704        1.93769
C         -3.99141       -1.17126        0.09137
H         -4.90093       -1.25472       -0.51324
H         -3.65876       -2.17428        0.34472
C          4.71110        0.16383        0.23104
O          5.36073        1.19484        0.16786
O          5.30851       -1.00001        0.49074
H          4.60658       -1.71766        0.50012
