32
id_627_cb.log	Energy: -411638.1909333
C          2.99180        1.92572       -0.62341
H          2.37563        2.78346       -0.33386
H          2.75611        1.67022       -1.66098
H          4.04330        2.22709       -0.57998
C          2.72628        0.74835        0.31280
C          1.27135        0.31434        0.28284
C          0.68685       -0.14267       -0.90666
H          1.28077       -0.18180       -1.81806
C         -0.64099       -0.56100       -0.93486
H         -1.07183       -0.91963       -1.86809
C         -1.43283       -0.53698        0.22158
C         -0.84832       -0.07967        1.40526
H         -1.44267       -0.04990        2.31651
C          0.48446        0.33742        1.43648
H          0.91891        0.68404        2.37178
C         -2.88091       -0.95625        0.16595
H         -2.96713       -1.89645       -0.39384
H         -3.24700       -1.14901        1.18353
C         -3.79885        0.09019       -0.49259
H         -3.42483        0.27163       -1.51058
C         -5.22231       -0.45598       -0.58845
H         -5.62535       -0.64933        0.41406
H         -5.25218       -1.39587       -1.15118
H         -5.88710        0.25958       -1.08498
C         -3.78145        1.41131        0.27425
H         -4.10643        1.25430        1.31146
H         -4.46147        2.13715       -0.18561
H         -2.78069        1.85603        0.29905
C          3.60430       -0.48496        0.01139
O          4.18297       -0.56265       -1.10644
O          3.66240       -1.36695        0.91776
H          2.95965        1.04640        1.34123
