32
id_672_cb.log	Energy: -739591.0333799
C         -0.18163        0.60988        1.79685
H          0.26279        0.61891        2.79479
H         -1.16241        0.14376        1.83968
H         -0.26932        1.63530        1.42958
N          0.67774       -0.14549        0.89275
C          1.94809        0.25283        0.52977
C          2.73634        1.32344        0.96143
H          2.38495        2.02485        1.71121
C          3.98755        1.43797        0.37724
H          4.63913        2.25322        0.67496
C          4.43835        0.52079       -0.59729
H          5.42726        0.65267       -1.02441
C          3.64931       -0.53643       -1.01818
H          3.99291       -1.24170       -1.76801
C          2.37824       -0.66775       -0.44313
N          1.38978       -1.61134       -0.66535
C          0.41588       -1.24143        0.12779
S         -1.07825       -2.23772        0.14572
O         -1.84223       -1.96132        1.42797
C         -1.96431       -1.35301       -1.20271
H         -1.34623       -1.47654       -2.09537
H         -2.89632       -1.91395       -1.31557
C         -2.19997        0.08510       -0.86972
C         -3.28413        0.45371       -0.07161
H         -3.98688       -0.29953        0.26846
C         -3.43719        1.79421        0.26772
H         -4.26927        2.11398        0.88685
C         -2.50640        2.71247       -0.20456
H         -2.58262        3.76834        0.03020
C         -1.46059        2.24662       -0.99846
H         -0.71898        2.93987       -1.38712
N         -1.29645        0.96317       -1.33189
