50
id_630_ca.log	Energy: -991035.2019232
C          1.69981        2.37802        1.16648
H          2.04756        2.38799        2.19371
C          0.44524        2.87789        0.85333
H         -0.21475        3.29178        1.60765
C          0.02890        2.81669       -0.47086
C          0.82076        2.30200       -1.48590
H          0.45152        2.28823       -2.50530
C          2.07938        1.80982       -1.15548
H          2.70126        1.41117       -1.95104
C          2.52495        1.82651        0.17367
C          3.81107        1.20734        0.61389
O          4.17153        1.31977        1.77823
C          4.66085        0.36364       -0.32105
H          5.67552        0.76008       -0.22308
H          4.37361        0.45296       -1.37058
C          4.67708       -1.11967        0.11123
H          4.58543       -1.19334        1.19887
H          5.65170       -1.54503       -0.14281
C          3.66987       -2.01395       -0.59903
H          3.88184       -2.04306       -1.67010
H          3.70516       -3.03176       -0.20313
N          2.23786       -1.57550       -0.48503
C          1.34903       -2.44871       -1.32868
H          1.76780       -2.44822       -2.33600
H          1.41775       -3.45372       -0.90690
C         -0.07519       -1.91820       -1.32376
H         -0.69797       -2.59005       -1.92173
H         -0.09807       -0.92847       -1.79379
C         -0.64231       -1.82375        0.09840
C          0.31487       -0.98297        0.95788
H          0.31225        0.05348        0.60059
H         -0.03181       -0.97490        1.99688
C          1.73375       -1.52785        0.92760
H          2.40356       -0.89516        1.51248
H          1.79395       -2.55137        1.30579
C         -2.03258       -1.19561        0.09033
C         -3.14665       -1.90203        0.54199
H         -3.03737       -2.92460        0.88582
C         -4.41055       -1.31379        0.55643
H         -5.27271       -1.86885        0.91042
C         -4.55115       -0.00623        0.11190
C         -3.46042        0.72200       -0.35231
H         -3.58152        1.74272       -0.69910
C         -2.20962        0.11694       -0.36113
H         -1.36118        0.68194       -0.73433
Cl        -6.13413        0.74223        0.13254
O         -0.67636       -3.15825        0.58430
H         -0.87283       -3.12798        1.53601
F         -1.20320        3.24911       -0.77792
H          2.15940       -0.62597       -0.87708
