59
id_636_ca.log	Energy: -1023668.2475217
C         -1.62965       -0.18480        0.67146
H         -1.49175       -1.09990        1.23658
C         -0.61726        0.74836        0.54348
C         -0.88599        1.90823       -0.19798
C         -2.13742        2.07050       -0.76418
H         -2.35858        2.95766       -1.35058
N         -3.12450        1.17447       -0.63081
C         -2.86797        0.08095        0.06779
O         -3.81564       -0.86794        0.22694
C         -5.11832       -0.64702       -0.32720
H         -5.02000       -0.20389       -1.32301
C         -5.93589        0.26870        0.57893
H         -5.92979       -0.14261        1.59547
H         -5.50226        1.27069        0.61330
C         -7.36590        0.37970        0.07627
H         -7.41346        0.80305       -0.92942
H         -7.99005        0.96921        0.74699
N         -7.97458       -0.98826       -0.01559
H         -8.01038       -1.40490        0.92379
C         -7.20035       -1.89538       -0.92542
H         -7.71167       -2.85717       -0.93898
H         -7.24829       -1.44481       -1.91911
C         -5.77053       -2.01890       -0.42702
H         -5.21352       -2.65613       -1.11852
H         -5.76104       -2.49564        0.56035
Cl         0.32002        3.13182       -0.47502
C          0.70542        0.52689        1.23362
O          1.17995        1.38743        1.97630
N          1.26959       -0.66776        0.99742
H          0.83958       -1.27473        0.30920
C          2.56521       -1.05028        1.54320
H          2.70897       -0.48621        2.46897
H          2.51661       -2.11419        1.79852
C          3.74032       -0.80734        0.59162
C          3.87068        0.68198        0.22589
H          2.95633        1.02120       -0.28059
H          3.97791        1.27706        1.14322
C          5.08278        0.89854       -0.69323
H          5.16090        1.96249       -0.94579
C          4.90216        0.07466       -1.97727
H          3.99971        0.40317       -2.50931
H          5.75620        0.23536       -2.64793
C          4.78810       -1.41596       -1.62322
H          4.65498       -2.00406       -2.53876
C          3.57715       -1.62628       -0.70162
H          3.47477       -2.69100       -0.44822
H          2.65930       -1.32194       -1.22303
C          6.06460       -1.86795       -0.89850
H          5.99845       -2.93618       -0.65403
H          6.93471       -1.73362       -1.55411
C          6.24593       -1.04632        0.38685
H          7.15353       -1.37152        0.90865
C          6.35949        0.44333        0.02943
H          7.23311        0.60805       -0.61450
H          6.50589        1.03717        0.94108
C          5.03008       -1.25751        1.30081
H          5.15327       -0.68574        2.23112
H          4.94481       -2.31807        1.57591
H         -8.94261       -0.91347       -0.34731
