41
id_682_cb.log	Energy: -720108.9638761
C          0.15461       -2.11803       -0.37690
H          0.47233       -3.14014       -0.55570
C          1.11200       -1.10761       -0.16066
C          0.65868        0.20930        0.02397
C         -0.71939        0.49999        0.03937
H         -1.04301        1.51544        0.22023
C         -1.66730       -0.49717       -0.16252
C         -1.17441       -1.80779       -0.38695
F         -2.06577       -2.78929       -0.66281
N         -3.04757       -0.25680       -0.20247
C         -3.81561       -0.99185        0.82427
H         -3.57095       -0.57877        1.81796
H         -3.53396       -2.04509        0.81556
C         -5.30935       -0.85506        0.56986
H         -5.56072       -1.34128       -0.37993
H         -5.85318       -1.37302        1.36429
N         -5.76668        0.53646        0.50460
H         -5.60754        0.95435        1.42358
C         -4.94483        1.27229       -0.46108
H         -5.17419        0.89070       -1.46258
H         -5.22391        2.32892       -0.43518
C         -3.44727        1.15308       -0.20806
H         -3.20259        1.63067        0.75707
H         -2.89976        1.67707       -0.99731
N          1.59599        1.22133        0.21184
C          2.90788        0.91611        0.26595
H          3.56871        1.75634        0.44676
C          3.43149       -0.34573        0.12147
C          2.54032       -1.45371       -0.13506
O          2.90439       -2.63341       -0.34195
C          4.93271       -0.48029        0.25740
O          5.62579        0.54751        0.00423
O          5.40200       -1.58712        0.63890
C          1.15917        2.58853        0.42815
H          0.76100        2.75802        1.42459
C          0.53414        3.33453       -0.71099
H         -0.30051        3.98647       -0.47506
H          0.46598        2.80978       -1.65923
C          1.91053        3.70103       -0.23137
H          2.04022        4.60996        0.34553
H          2.74425        3.43583       -0.87369
