45
id_671_ca.log	Energy: -838036.6925445
C          6.51706        0.01971        1.64988
H          6.84604       -0.24252        2.65901
H          6.61507        1.10320        1.53563
H          7.18569       -0.47531        0.94031
C          5.08097       -0.43896        1.49277
H          4.43590       -0.00176        2.25732
H          4.99551       -1.52459        1.55918
N          4.47532       -0.03889        0.17351
H          3.53836       -0.47013        0.13119
C          5.21139       -0.58376       -1.01954
H          4.63876       -0.27256       -1.89470
H          6.18351       -0.08781       -1.04890
C          5.33641       -2.09385       -0.97524
H          6.03228       -2.42933       -0.20192
H          5.71562       -2.43548       -1.94197
H          4.36149       -2.56425       -0.80747
C          4.29195        1.45030        0.06490
H          4.08784        1.82871        1.06871
H          5.23552        1.87134       -0.28908
C          3.16347        1.84013       -0.87818
H          3.28798        1.38880       -1.86547
H          3.20824        2.92332       -1.00185
N          1.83389        1.51475       -0.37718
H          1.31036        2.25086        0.08121
C          1.27156        0.30721       -0.55458
O          1.92507       -0.64455       -1.02382
C         -0.15677        0.13325       -0.15424
C         -1.05256        1.20113       -0.03863
H         -0.74540        2.22126       -0.24866
C         -2.37215        0.98281        0.34284
H         -3.05030        1.82148        0.45101
C         -2.81255       -0.32044        0.58764
C         -1.92775       -1.39577        0.46446
H         -2.27846       -2.40648        0.65485
C         -0.60787       -1.16566        0.10182
H          0.08013       -2.00016        0.01163
N         -4.14930       -0.58151        1.00343
S         -5.44026       -0.01897        0.10079
O         -5.41716        1.44272        0.13892
O         -6.60691       -0.71519        0.64616
C         -5.16168       -0.54311       -1.57079
H         -4.23520       -0.08688       -1.92627
H         -6.01278       -0.19345       -2.16060
H         -5.09875       -1.63293       -1.58132
H         -4.30930       -1.56413        1.23844
