36
id_654_ca.log	Energy: -753711.6271162
C         -5.02572        2.08066       -1.21016
H         -4.84740        2.09373       -2.29025
H         -4.68006        3.03686       -0.80057
H         -6.10801        2.01948       -1.04810
C         -4.30804        0.91177       -0.54020
H         -3.23080        0.98229       -0.74258
H         -4.64848       -0.03542       -0.97863
C         -4.55089        0.88288        0.96737
H         -5.62863        0.80870        1.16329
H         -4.21110        1.82692        1.41520
C         -3.87090       -0.28117        1.68256
H         -4.19115       -1.23643        1.26028
H         -4.13004       -0.28026        2.74383
N         -2.41343       -0.22663        1.59093
H         -1.93520        0.48247        2.13853
C         -1.73558       -0.86169        0.62325
O         -2.22331       -1.64578       -0.19350
N         -0.34647       -0.61836        0.63031
H         -0.01368        0.20207        1.14052
S          0.51514       -0.90457       -0.79103
O          0.63751       -2.35043       -0.96223
O         -0.06680       -0.13395       -1.89193
C          2.07458       -0.21123       -0.34305
C          3.01051       -1.01861        0.30154
H          2.79440       -2.06217        0.50981
C          4.22737       -0.45561        0.66954
H          4.96929       -1.07027        1.17201
C          4.51144        0.89046        0.40247
C          3.54488        1.67270       -0.24296
H          3.75405        2.71817       -0.45237
C          2.32123        1.13186       -0.62302
H          1.57649        1.74085       -1.12666
C          5.84336        1.47828        0.77777
H          6.25482        0.98853        1.66436
H          5.76038        2.55109        0.97050
H          6.55962        1.34094       -0.04069
