40
id_657_ca.log	Energy: -459100.0939464
C          4.31670       -1.50139       -1.02361
H          3.90760       -2.41752       -0.59283
H          5.39423       -1.63931       -1.14135
H          3.88324       -1.34626       -2.01613
C          4.09264       -0.29010       -0.14206
H          4.58389        0.58886       -0.56071
H          4.44621       -0.43903        0.88035
N          2.62763        0.07091       -0.02407
C          2.46491        1.48944        0.47690
H          1.49178        1.55295        0.96763
H          3.23906        1.62871        1.23423
C          2.56316        2.48638       -0.65987
H          2.40952        3.48981       -0.25601
H          1.78707        2.29540       -1.40873
H          3.54037        2.46143       -1.14866
C          1.90973       -0.90582        0.84228
H          2.17301       -1.91580        0.52087
H          2.26730       -0.75640        1.86309
C          0.38910       -0.83221        0.86160
O         -0.18946       -1.47606        1.73074
N         -0.25056       -0.13144       -0.09981
H          0.26588        0.50752       -0.69523
C         -1.67427       -0.01102       -0.14916
C         -2.46595       -1.14101       -0.39150
C         -3.85137       -0.96127       -0.45396
H         -4.48235       -1.82538       -0.64307
C         -4.42060        0.29717       -0.29694
H         -5.49803        0.41644       -0.35625
C         -3.60943        1.40661       -0.07079
H         -4.05011        2.39199        0.05110
C         -2.22453        1.26950        0.01119
C         -1.33572        2.45489        0.27742
H         -0.62886        2.62511       -0.54389
H         -0.74418        2.30445        1.18770
H         -1.93330        3.36080        0.40039
C         -1.86809       -2.50718       -0.58776
H         -2.54337       -3.13545       -1.17347
H         -1.69373       -2.99974        0.37425
H         -0.90541       -2.45253       -1.10450
H          2.24871        0.01220       -0.97997
