60
id_620_cb.log	Energy: -1437645.5517050
C         -0.25526       -1.29928        0.81829
H         -1.05941       -0.56486        0.75174
H         -0.09284       -1.58991        1.86186
H         -0.50352       -2.18225        0.21794
O          0.89838       -0.64725        0.29000
C          2.05621       -1.34944        0.24256
C          2.18032       -2.66552        0.69529
H          1.32737       -3.19627        1.10091
C          3.41161       -3.31621        0.63471
H          3.49855       -4.34074        0.98243
C          4.51767       -2.64653        0.13158
C          4.41557       -1.33323       -0.31434
H          5.28633       -0.82294       -0.71557
C          3.18555       -0.68063       -0.26797
C          3.06288        0.71748       -0.80421
O          2.19699        1.01243       -1.64142
N          3.97833        1.58873       -0.34752
H          4.59626        1.28339        0.39676
C          4.02563        2.99091       -0.73528
H          3.59574        3.08015       -1.73551
H          5.07569        3.28819       -0.78666
C          3.28321        3.90154        0.25335
H          3.72933        3.78485        1.24697
H          3.44136        4.93680       -0.06735
C          1.80977        3.59396        0.30376
C          0.94297        4.14726       -0.64515
H          1.33326        4.84167       -1.38565
C         -0.41042        3.81857       -0.65761
H         -1.07972        4.25277       -1.39368
C         -0.89545        2.92547        0.29391
C         -0.05611        2.36375        1.25359
H         -0.44843        1.66869        1.99161
C          1.29415        2.70417        1.25356
H          1.95603        2.27231        2.00058
S         -2.62296        2.48519        0.29885
O         -3.33277        3.49507       -0.52841
O         -3.05524        2.47503        1.72289
N         -2.56009        1.02677       -0.35559
C         -3.73189        0.32214       -0.41274
O         -4.86780        0.73773       -0.08580
N         -3.56589       -0.93629       -0.92661
H         -2.60136       -1.24962       -0.95975
C         -4.58730       -1.97258       -0.75855
H         -5.52956       -1.55300       -1.12346
C         -4.75638       -2.38835        0.71113
H         -4.99091       -1.50697        1.31828
H         -5.61915       -3.06590        0.77448
C         -3.51163       -3.09748        1.24825
H         -2.66958       -2.39097        1.26259
H         -3.67820       -3.40484        2.28694
C         -3.14929       -4.31043        0.38684
H         -2.23464       -4.78494        0.76193
H         -3.95396       -5.05580        0.46593
C         -2.97684       -3.91971       -1.08358
H         -2.08466       -3.28597       -1.19027
H         -2.79140       -4.81060       -1.69431
C         -4.21584       -3.18844       -1.61316
H         -5.06903       -3.87864       -1.59570
H         -4.06925       -2.87907       -2.65438
Cl         6.06385       -3.46185        0.04967
