44
id_668_ca.log	Energy: -837741.4386215
C          3.02856       -0.73283        2.14682
H          3.09537       -0.93799        3.22045
H          2.28662       -1.41269        1.71417
H          2.65941        0.29234        2.02658
C          4.38673       -0.93833        1.48789
H          4.67472       -1.98638        1.60508
H          5.15823       -0.33739        2.00330
N          4.37028       -0.62178        0.05421
C          5.52296       -1.21180       -0.63905
H          5.59204       -0.73536       -1.62279
H          6.45614       -0.96156       -0.10058
C          5.42357       -2.71725       -0.83910
H          4.52778       -2.97311       -1.41480
H          5.39129       -3.26456        0.10758
H          6.29788       -3.07171       -1.39485
C          4.37210        0.83191       -0.14580
H          3.94879        1.32114        0.73510
H          5.40200        1.21199       -0.25112
C          3.55698        1.26036       -1.36059
H          3.87498        0.72507       -2.25807
H          3.69359        2.33065       -1.53963
N          2.13505        0.99115       -1.17536
H          1.75733        0.13881       -1.57085
C          1.39339        1.68167       -0.29491
O          1.80614        2.72204        0.24742
C          0.02004        1.15983        0.00077
C         -0.27925       -0.20615       -0.03464
H          0.48755       -0.93821       -0.27179
C         -1.55643       -0.65487        0.28591
H         -1.78242       -1.71584        0.29465
C         -2.54639        0.26964        0.62027
C         -2.25725        1.63509        0.66043
H         -3.03817        2.34326        0.92411
C         -0.97100        2.07423        0.36828
H         -0.73662        3.13347        0.40802
N         -3.85901       -0.20064        0.96194
H         -4.36771        0.49135        1.52142
S         -4.82743       -0.62987       -0.34976
O         -5.26839        0.55782       -1.09461
O         -4.09446       -1.64610       -1.10835
C         -6.21844       -1.34767        0.47176
H         -6.92415       -1.63707       -0.31067
H         -6.66215       -0.59507        1.12709
H         -5.87755       -2.21748        1.03439
