69
id_601_cb.log	Energy: -1293596.0241032
C         -3.41405       -1.37634       -2.66206
H         -4.43764       -1.32902       -3.03984
H         -2.83804       -2.02321       -3.32807
H         -2.97820       -0.37231       -2.68685
C         -3.40521       -1.94703       -1.23408
C         -2.00587       -1.97034       -0.66020
C         -0.93252       -2.48509       -1.40390
H         -1.09207       -2.84651       -2.41490
C          0.34154       -2.55230       -0.86666
H          1.17098       -2.94676       -1.44728
C          0.58106       -2.11074        0.44310
C         -0.46174       -1.60203        1.20217
H         -0.31612       -1.24535        2.21493
C         -1.74683       -1.54485        0.63952
C         -2.82471       -0.99893        1.49402
O         -2.63456       -0.71163        2.66917
N         -4.07690       -0.79544        0.91329
C         -4.38093       -1.12911       -0.39743
O         -5.47345       -0.81099       -0.85103
C         -5.01860        0.09271        1.61689
H         -4.72755        0.08760        2.66430
H         -6.02195       -0.32499        1.53050
C         -4.98043        1.52914        1.04521
H         -5.64553        1.59910        0.18113
H         -5.36271        2.20016        1.82093
C         -3.58332        1.92589        0.63560
C         -3.19900        1.84213       -0.70742
H         -3.93800        1.57355       -1.45937
C         -1.88454        2.09359       -1.09702
H         -1.59618        2.02887       -2.14214
C         -0.94986        2.43817       -0.12550
C         -1.30612        2.53586        1.21880
H         -0.56733        2.81545        1.96414
C         -2.62298        2.27932        1.59120
H         -2.90698        2.34373        2.63909
S          0.72884        2.79461       -0.61276
O          1.22702        3.82834        0.33234
O          0.67176        3.25306       -2.02595
N          1.42863        1.36356       -0.43006
C          2.76365        1.31390       -0.73662
O          3.47349        2.28058       -1.10160
N          3.29090        0.05460       -0.64522
H          2.71073       -0.63038       -0.16604
C          4.73160       -0.15707       -0.52618
H          5.21607        0.41041       -1.33016
C          5.27355        0.33333        0.82114
H          5.05493        1.40096        0.93971
H          4.73881       -0.20157        1.62013
C          6.77598        0.06950        0.94372
H          7.13821        0.41032        1.92031
H          7.30927        0.65633        0.18209
C          7.08765       -1.41506        0.74374
H          8.16827       -1.58963        0.80171
H          6.62361       -1.99277        1.55634
C          6.54277       -1.91073       -0.59760
H          6.73799       -2.98226       -0.71808
H          7.06971       -1.39557       -1.41324
C          5.04126       -1.64075       -0.72102
H          4.66706       -1.97146       -1.69714
H          4.50404       -2.21687        0.04761
O          1.86986       -2.21365        0.87831
C          2.15818       -1.77663        2.20459
H          1.57304       -2.34582        2.93404
H          3.22092       -1.96775        2.35506
H          1.95173       -0.70580        2.31305
C         -3.97143       -3.38707       -1.25141
H         -3.32952       -4.01646       -1.87510
H         -4.98154       -3.38657       -1.67202
H         -4.00345       -3.81043       -0.24230
