43
id_662_ca.log	Energy: -829399.0879881
C          2.43350        0.76324        2.37052
H          2.58609        1.17200        3.37216
H          2.00076       -0.23557        2.47583
H          1.71758        1.40141        1.84305
C          3.76293        0.74018        1.63990
H          4.50423        0.10383        2.12986
H          4.17187        1.74760        1.55564
N          3.59662        0.20962        0.24675
C          4.68944        0.66224       -0.67977
H          5.63306        0.48789       -0.15583
H          4.65240        0.00805       -1.55339
C          4.50540        2.10849       -1.09580
H          3.53983        2.24480       -1.59223
H          5.29419        2.37095       -1.80490
H          4.56929        2.79775       -0.25051
C          3.45907       -1.28884        0.23054
H          4.45689       -1.69878        0.05839
H          3.11363       -1.61477        1.21212
C          2.48705       -1.74695       -0.84774
H          2.63706       -2.81558       -1.00405
H          2.69375       -1.23799       -1.79510
N          1.08699       -1.55661       -0.49414
H          0.53517       -2.36549       -0.23577
C          0.47093       -0.36813       -0.60301
O          1.11417        0.65809       -0.91830
C         -0.98750       -0.27130       -0.33125
C         -1.52617        1.01886       -0.34001
H         -0.86283        1.85411       -0.53370
C         -2.86540        1.24859       -0.11086
C         -3.75466        0.18649        0.13813
C         -3.22321       -1.11345        0.14870
H         -3.90439       -1.93468        0.33701
C         -1.87265       -1.34703       -0.07658
O         -1.35195       -2.59923       -0.07086
C         -2.21692       -3.70257        0.18588
H         -1.58136       -4.58603        0.14929
H         -2.99279       -3.77129       -0.58183
H         -2.67318       -3.61374        1.17576
N         -5.07660        0.39779        0.42023
H         -5.48830        1.25722        0.07664
H         -5.68071       -0.40962        0.32127
Cl        -3.47908        2.88734       -0.12523
H          2.70450        0.58764       -0.13933
