9
id_699_ca.log	Energy: -299902.9308724
C         -1.63062       -0.33511        0.00000
H         -1.59529       -0.97437        0.88800
H         -1.59529       -0.97437       -0.88800
H         -2.58895        0.19322       -0.00000
C         -0.49086        0.67258       -0.00000
H         -0.53682        1.30692        0.88769
H         -0.53682        1.30692       -0.88769
S          1.10424       -0.23270       -0.00000
H          1.91421        0.84010        0.00000
