47
id_691_cb.log	Energy: -878749.1542016
C          6.88177        0.17868        0.12761
H          7.15623        1.22974        0.00130
H          7.13470       -0.36093       -0.80166
H          7.47763       -0.24146        0.94275
N          5.46290        0.07221        0.44644
C          5.10184       -1.33550        0.60822
H          5.36526       -1.90945       -0.29993
H          5.66903       -1.75507        1.44488
C          3.61998       -1.49645        0.88780
H          3.36035       -0.99388        1.83325
H          3.38696       -2.55578        0.99015
N          2.82373       -0.90913       -0.20822
C          3.18338        0.49952       -0.38379
H          2.63145        0.90487       -1.23652
H          2.91785        1.08708        0.51058
C          4.67246        0.62715       -0.65136
H          4.92140        1.68619       -0.76934
H          4.91713        0.11570       -1.60089
C          1.45295       -1.18508       -0.14171
C          0.47492       -0.19915       -0.07208
H          0.76709        0.84088       -0.01297
C         -0.89296       -0.53152       -0.06075
C         -1.30842       -1.87273       -0.07676
C         -0.31990       -2.87381       -0.15304
H         -0.60655       -3.91937       -0.19991
C          0.99920       -2.52805       -0.19904
F          1.92010       -3.50947       -0.34532
C         -2.72663       -2.25512       -0.01847
O         -3.05039       -3.46266       -0.00436
C         -3.65841       -1.15033        0.05295
C         -3.17442        0.13284        0.07156
H         -3.85721        0.97444        0.12528
N         -1.86565        0.46502        0.00169
C         -1.50659        1.86006       -0.01060
C         -1.66995        2.61433        1.14796
H         -2.05103        2.14545        2.05038
C         -1.34497        3.96945        1.13881
H         -1.46287        4.58875        2.02169
C         -0.85522        4.51536       -0.03644
C         -0.68163        3.78240       -1.20135
H         -0.29901        4.26210       -2.09608
C         -1.01879        2.43242       -1.18421
H         -0.90138        1.82457       -2.07669
F         -0.53205        5.82852       -0.05067
C         -5.16442       -1.31088        0.08771
O         -5.82587       -0.37517        0.62290
O         -5.66765       -2.34136       -0.43602
