40
id_652_cb.log	Energy: -589405.1169821
C          4.38320        0.42531        0.19891
H          4.86528        0.12350       -0.73558
H          5.06401        0.19883        1.02534
H          4.24378        1.51824        0.17814
N          3.14586       -0.31996        0.37878
C          2.44886        0.15059        1.57621
H          3.13481        0.06386        2.42528
H          2.18626        1.22104        1.49250
C          1.19556       -0.67388        1.84329
H          1.47841       -1.69535        2.12577
H          0.63519       -0.23791        2.67830
C          0.29870       -0.75045        0.59878
C         -0.21626        0.60177        0.18891
C          0.43541        1.53367       -0.59620
C         -0.28506        2.69688       -0.90530
H          0.17127        3.47200       -1.51527
C         -1.60111        2.86249       -0.47133
H         -2.15590        3.76150       -0.72274
C         -2.27176        1.85565        0.23483
C         -1.54464        0.71329        0.53734
O         -2.03845       -0.44208        1.10273
C         -1.03268       -1.48269        0.88694
C         -1.49455       -2.39235       -0.27343
C         -1.00633       -1.93381       -1.62909
H         -1.68105       -2.09146       -2.46733
C          0.22718       -1.45407       -1.79250
H          0.60089       -1.18271       -2.77862
C          1.12468       -1.26985       -0.59611
C          2.27760       -0.26441       -0.81214
C          1.77353        1.15829       -1.19480
H          2.53978        1.89812       -0.93621
H          1.67523        1.20637       -2.28620
O         -2.90003       -2.56785       -0.22959
H         -3.27708       -1.67809       -0.11633
O         -3.59494        2.02004        0.55756
H         -3.91010        1.22017        1.01045
H         -1.00574       -2.05855        1.81393
H         -1.06248       -3.38226       -0.07730
H          1.58247       -2.23229       -0.32883
H          2.88722       -0.62474       -1.64827
