41
id_629_cb.log	Energy: -792688.5587578
C         -5.17285       -0.60059        1.30017
H         -5.68896       -1.55977        1.20287
H         -5.91388        0.20021        1.22611
H         -4.71616       -0.55549        2.30426
N         -4.18301       -0.45994        0.23993
C         -3.50102        0.82421        0.38726
H         -4.24493        1.62523        0.33576
H         -3.01137        0.89104        1.37809
C         -2.44749        1.03246       -0.70224
H         -2.95385        1.05648       -1.67640
H         -1.96632        2.00050       -0.55323
C         -1.45144       -0.10062       -0.70315
C         -0.11851        0.07833       -0.59764
C          0.51119        1.43028       -0.48565
C          0.41640        2.35912       -1.52491
H         -0.14360        2.09664       -2.41854
C          1.03318        3.60437       -1.42426
H          0.95117        4.31563       -2.24020
C          1.75765        3.92795       -0.27987
H          2.24380        4.89474       -0.19442
C          1.85832        3.00562        0.75972
H          2.41595        3.25532        1.65842
C          1.23983        1.75880        0.66775
C          1.33829        0.76710        1.80529
H          0.33828        0.37435        2.03791
H          1.74598        1.23916        2.70110
C          2.22431       -0.41751        1.47437
O          3.18000       -0.71752        2.18140
C          1.88909       -1.20844        0.28919
C          0.84544       -1.05164       -0.60553
C          0.86453       -2.07216       -1.60757
H          0.15133       -2.11922       -2.42265
C          1.88874       -2.95951       -1.44494
H          2.12680       -3.81230       -2.06788
S          2.86659       -2.59222       -0.08400
C         -2.12846       -1.44888       -0.73293
H         -1.42216       -2.26876       -0.59165
H         -2.61245       -1.58574       -1.70900
C         -3.19804       -1.53279        0.35907
H         -2.70312       -1.49504        1.34866
H         -3.71578       -2.49438        0.28921
