39
id_695_cb.log	Energy: -706294.9232243
C          0.24779        3.23415        0.65137
H         -0.50178        2.59667        1.12939
H          1.09275        3.35731        1.33646
H         -0.19778        4.21681        0.46959
C          0.71393        2.63419       -0.66556
H          1.48979        3.24920       -1.12446
H         -0.10911        2.53608       -1.37287
N          1.30372        1.29646       -0.46912
C          2.62681        1.17972       -0.24540
H          3.18461        2.10729       -0.31275
C          3.29177        0.01025        0.04401
C          2.52733       -1.21781        0.14924
O          2.99023       -2.35031        0.41691
C          1.08864       -1.06029       -0.07822
C          0.49650        0.17520       -0.36880
N         -0.81708        0.35746       -0.55186
C         -1.64898       -0.67837       -0.48603
C         -1.11039       -1.98114       -0.25220
C          0.21890       -2.17099       -0.04106
H          0.60784       -3.17146        0.12226
F         -1.92763       -3.05594       -0.31586
N         -2.98716       -0.48189       -0.73366
C         -3.98415       -1.11041        0.15609
H         -4.91546       -1.20159       -0.41421
H         -3.66675       -2.10952        0.44777
C         -4.21245       -0.24423        1.39305
H         -3.28284       -0.20206        1.97504
H         -4.97840       -0.70930        2.02034
N         -4.61855        1.13078        1.08177
H         -5.52147        1.08032        0.60541
C         -3.66074        1.73659        0.14709
H         -2.71516        1.88865        0.67894
H         -4.03430        2.71783       -0.15923
C         -3.41651        0.87783       -1.09124
H         -2.67522        1.33274       -1.74895
H         -4.35468        0.76976       -1.64828
C          4.79178        0.11690        0.23603
O          5.29341        1.27947        0.21121
O          5.45871       -0.93971        0.40415
