20
id_777_ca.log	Energy: -502243.1630296
C         -0.74822        0.13065        1.72055
H          0.22347       -0.05919        2.19125
H         -1.50676       -0.44295        2.26113
H         -0.98668        1.19314        1.82882
C         -0.72384       -0.30218        0.25453
C         -0.51426       -1.81439        0.15604
H         -1.35852       -2.34230        0.61098
H          0.38919       -2.10865        0.70157
H         -0.41511       -2.14148       -0.88422
C          0.35761        0.46457       -0.55600
C          1.75160        0.01484       -0.12637
O          2.37081        0.49096        0.80631
O          2.24622       -0.96065       -0.89701
H          3.13063       -1.21514       -0.56625
N          0.19789        1.90567       -0.43017
H          0.81470        2.36468       -1.09863
H          0.50911        2.20199        0.49501
S         -2.36382        0.02812       -0.52706
H         -2.28058        1.36762       -0.45519
H          0.24299        0.18921       -1.60718
