45
id_776_ca.log	Energy: -721446.5523926
C          1.11660        3.36810        1.04970
H          2.00046        3.35131        1.69457
H          0.31990        2.79503        1.53278
H          0.78104        4.40416        0.94790
C          1.45913        2.81951       -0.32621
H          0.61295        2.86687       -1.01329
H          2.26856        3.39479       -0.77639
N          1.93130        1.41985       -0.26399
C          3.24922        1.18758       -0.28053
H          3.86366        2.07655       -0.39209
C          3.82355       -0.05787       -0.13618
C          2.98893       -1.22225        0.06432
O          3.42128       -2.38345        0.19237
C          1.54801       -0.94089        0.07607
C          1.04070        0.36103       -0.07776
C         -0.34884        0.58696       -0.06216
H         -0.73490        1.58682       -0.20124
C         -1.24421       -0.45865        0.12510
C         -0.69756       -1.75302        0.29672
C          0.64396       -2.00205        0.26608
H          1.01231       -3.01227        0.41172
F         -1.54566       -2.77656        0.53963
N         -2.63598       -0.28282        0.20155
C         -3.09576        1.10287        0.27985
H         -2.56048        1.62409        1.07712
H         -2.91742        1.63914       -0.66674
C         -4.57350        1.14679        0.61542
H         -4.78582        0.66504        1.57324
H         -4.93310        2.17678        0.63160
N         -5.36818        0.40812       -0.41610
H         -5.21840        0.87572       -1.32069
C         -4.86745       -0.99640       -0.54093
H         -5.08592       -1.49036        0.40958
H         -5.42848       -1.47560       -1.34497
C         -3.38462       -0.99740       -0.84728
H         -3.05608       -2.03405       -0.91066
H         -3.20388       -0.51952       -1.82340
C         -6.82522        0.44729       -0.11549
H         -7.35665       -0.07269       -0.91240
H         -7.13873        1.48978       -0.06255
H         -6.98610       -0.05063        0.84145
C          5.29587       -0.18370       -0.12540
O          5.90552       -0.98702        0.55617
O          6.01419        0.65679       -0.90182
H          5.46727        1.14399       -1.54409
