48
id_719_cb.log	Energy: -816594.4802528
C         -5.93865       -1.47973        1.15521
H         -6.95220       -1.58353        0.75649
H         -5.57531       -2.47295        1.43807
H         -5.98677       -0.86377        2.06176
C         -5.01823       -0.84179        0.12842
C         -3.58934       -0.77727        0.66534
H         -3.21375       -1.78414        0.85877
H         -3.59475       -0.22720        1.62401
N         -2.70650       -0.09465       -0.28885
C         -3.17090        1.25753       -0.58963
H         -2.50487        1.71001       -1.32879
H         -3.17685        1.89399        0.31012
C         -4.58900        1.17258       -1.14385
H         -4.95993        2.18433       -1.33166
H         -4.57612        0.63721       -2.10011
N         -5.52762        0.48564       -0.24975
H         -5.59484        1.03539        0.61129
C         -1.34497       -0.39154       -0.23074
C         -0.92805       -1.71458       -0.51047
C          0.37418       -2.11711       -0.48098
H          0.63165       -3.15134       -0.68084
C          1.38630       -1.17428       -0.22660
C          1.03736        0.17079       -0.00695
C         -0.33489        0.53174        0.06891
O         -0.69173        1.78080        0.50321
C         -0.99367        1.81324        1.90185
H         -1.26064        2.84525        2.13480
H         -0.11740        1.51201        2.48726
H         -1.83509        1.14963        2.13139
N          2.06492        1.09824        0.18274
C          3.33636        0.66183        0.28636
H          4.06667        1.43921        0.47342
C          3.76096       -0.63903        0.15803
C          2.78298       -1.64895       -0.17263
O          3.02823       -2.85409       -0.39465
C          5.24638       -0.88903        0.32556
O          5.68307       -2.06587        0.20338
O          5.97108        0.11630        0.58616
C          1.84450        2.54054        0.13138
H          1.48451        2.96407        1.06244
C          2.77453        3.36710       -0.70370
H          3.04934        4.33855       -0.30704
H          3.55503        2.85870       -1.26083
C          1.35384        3.13846       -1.14423
H          1.20003        2.45771       -1.97670
H          0.63484        3.94670       -1.06374
F         -1.88292       -2.61807       -0.83078
H         -5.00622       -1.45206       -0.78445
