43
id_707_cb.log	Energy: -845378.8745037
C          6.74321        0.68004       -0.35201
H          6.58659        1.18900       -1.31905
H          7.48444       -0.11124       -0.49517
H          7.14380        1.40804        0.35912
N          5.50514        0.11076        0.16707
C          4.97317       -0.85875       -0.79178
H          4.81441       -0.38187       -1.77677
H          5.70406       -1.66297       -0.92235
C          3.66393       -1.45593       -0.30225
H          3.84440       -2.00289        0.63386
H          3.28179       -2.15641       -1.04867
N          2.69239       -0.37513       -0.11592
C          3.19460        0.62250        0.84217
H          2.47414        1.43622        0.94047
H          3.32061        0.15462        1.83153
C          4.52097        1.17680        0.35649
H          4.90590        1.88818        1.09379
H          4.35696        1.72510       -0.59029
C          1.33269       -0.67966       -0.01290
C          0.78480       -1.92480        0.35998
C         -0.56203       -2.16803        0.38700
H         -0.92750       -3.14742        0.67628
C         -1.47179       -1.14732        0.07902
C         -0.99521        0.13338       -0.27095
C          0.39901        0.30611       -0.33413
F          0.90651        1.48387       -0.75248
N         -1.91211        1.14427       -0.56080
C         -3.23127        0.86229       -0.50325
H         -3.88471        1.69993       -0.71994
C         -3.78593       -0.35916       -0.21421
C         -2.91568       -1.45383        0.13657
O         -3.29265       -2.59046        0.48815
C         -5.29672       -0.45348       -0.27149
O         -5.82052       -1.59131       -0.41400
O         -5.94024        0.63241       -0.19282
C         -1.53488        2.56293       -0.71889
H         -0.76626        2.67594       -1.48036
H         -2.42814        3.08240       -1.06746
C         -1.08827        3.17577        0.58797
H         -0.80201        4.21819        0.43252
H         -0.27363        2.62908        1.06834
F         -2.17142        3.15654        1.47896
F          1.62169       -2.92058        0.72208
