47
id_725_cb.log	Energy: -860612.9506477
C         -6.63208       -1.82180       -1.64458
H         -6.72684       -1.27919       -2.58982
H         -7.44630       -1.54574       -0.96800
H         -6.64825       -2.89683       -1.82873
O         -5.37024       -1.55566       -1.04025
N         -5.26342       -0.19197       -0.76268
C         -4.12061        0.07999       -0.26657
C         -3.00230       -0.89746       -0.03915
H         -2.78111       -1.44450       -0.96413
H         -3.27006       -1.62250        0.73457
N         -1.88367       -0.03288        0.36833
C         -2.19251        1.38542        0.10991
H         -1.71279        2.01975        0.85856
H         -1.81904        1.67844       -0.87956
C         -3.71967        1.46306        0.17180
C         -4.21121        1.75475        1.59493
H         -3.79798        2.72083        1.89834
H         -3.80404        0.99467        2.27817
N         -5.67125        1.84312        1.64103
H         -6.06498        0.92794        1.42260
H         -5.95413        2.04536        2.59860
C         -0.58499       -0.43436        0.29317
C         -0.19647       -1.80514        0.37734
C          1.10994       -2.16924        0.30313
H          1.39020       -3.21573        0.37520
C          2.09669       -1.17035        0.15725
C          3.51622       -1.51679        0.10173
O          3.87380       -2.71660        0.10375
C          4.41212       -0.38099        0.02880
C          3.88429        0.88332       -0.03948
H          4.54369        1.74089       -0.10693
N          2.56463        1.17932       -0.02035
C          1.63862        0.15341        0.10785
N          0.34945        0.50689        0.17181
C          2.11622        2.56030       -0.05154
H          1.78302        2.92119        0.91638
C          2.80726        3.52364       -0.96476
H          2.96331        4.52766       -0.58579
H          3.59777        3.14243       -1.60337
C          1.40571        3.06679       -1.26489
H          1.28190        2.36752       -2.08583
H          0.57834        3.74958       -1.10283
C          5.92233       -0.49376        0.03058
O          6.44561       -1.50489        0.57309
O          6.56825        0.45798       -0.49600
F         -1.14536       -2.74655        0.57723
H         -4.11149        2.22450       -0.50758
