46
id_788_ca.log	Energy: -1127657.9656713
C          0.37418        2.05198        1.50260
H          1.05412        2.61420        2.14913
H          0.70005        2.17784        0.46523
H          0.43755        0.99189        1.77285
C         -1.03214        2.57143        1.68844
H         -1.13017        3.61717        1.38745
H         -1.38482        2.45664        2.71661
O         -1.88817        1.77324        0.83457
C         -3.19217        2.01892        0.85647
O         -3.70959        2.94214        1.45662
C         -3.94352        1.05262        0.03585
C         -5.16847        1.28740       -0.60191
H         -5.77088        2.18490       -0.57927
N         -5.54383        0.23279       -1.31913
N         -4.59523       -0.69394       -1.15928
C         -3.60954       -0.24356       -0.35058
S         -2.26423       -1.24751        0.21183
O         -2.44500       -2.60966       -0.26320
O         -2.10455       -1.02521        1.64141
N         -1.00794       -0.54974       -0.66724
H         -1.11848        0.46669       -0.75014
C          0.29218       -1.00953       -0.37116
O          0.47391       -2.02332        0.27792
N          1.24693       -0.21622       -0.94471
H          0.93251        0.53772       -1.55045
C          2.60771       -0.15760       -0.63186
N          3.27403        0.74252       -1.34174
C          4.58293        0.84336       -1.07003
C          5.21745        0.06233       -0.11397
H          6.27115        0.12253        0.12062
C          4.38496       -0.83883        0.55429
N          3.08261       -0.96370        0.31303
O          4.95101       -1.61043        1.48892
C          4.11768       -2.54661        2.18650
H          3.33089       -2.02347        2.73348
H          4.78528       -3.05661        2.87935
H          3.67808       -3.26087        1.48754
O          5.20366        1.76801       -1.81632
C          6.60806        1.95473       -1.61648
H          6.89931        2.73880       -2.31318
H          7.15049        1.03245       -1.84222
H          6.80788        2.27300       -0.58968
C         -4.74986       -1.98566       -1.83363
H         -3.85498       -2.20991       -2.41235
H         -5.60665       -1.87766       -2.49540
H         -4.93632       -2.77122       -1.10208
