20
id_712_cb.log	Energy: -942686.2123964
C         -0.46187       -0.23717       -0.14559
C          0.61536        0.80106        0.25286
C          2.03615        0.51885       -0.28571
C          2.66845       -0.86321       -0.01477
F          2.09383       -1.80635       -0.75415
F          2.59368       -1.18929        1.27263
F          3.96152       -0.80636       -0.35508
F          2.86793        1.43878        0.25216
F          2.03285        0.69191       -1.62477
F          0.32902        2.05552       -0.20656
F          0.71967        0.90100        1.60068
C         -1.84477        0.44091       -0.03342
C         -3.01697       -0.56032       -0.12382
F         -2.82634       -1.42143       -1.12802
F         -3.18816       -1.24414        1.00551
F         -4.15809        0.10246       -0.36514
F         -1.99802        1.10283        1.14638
F         -2.05442        1.34861       -1.02681
O         -0.37649       -1.34495        0.62339
H         -0.32748       -0.40292       -1.23607
