33
id_748_ca.log	Energy: -445502.9948930
C          1.30183       -3.49429       -0.14313
H          2.16965       -4.13279        0.01927
H          0.85997       -3.71488       -1.12007
H          0.56207       -3.67069        0.64426
O          1.78766       -2.15800       -0.09486
C          0.87543       -1.16349       -0.26662
C         -0.48630       -1.36432       -0.49548
H         -0.89984       -2.36522       -0.55329
C         -1.32858       -0.26154       -0.65477
C         -0.82419        1.03774       -0.57924
H         -1.49603        1.87998       -0.70542
C          0.54120        1.23624       -0.34879
C          1.39155        0.13676       -0.20601
O          2.74232        0.33122       -0.01697
C          3.08922        0.42513        1.36762
H          4.16871        0.57643        1.41041
H          2.82539       -0.49808        1.89386
H          2.57972        1.27395        1.83533
O          1.14029        2.45387       -0.25187
C          0.30559        3.59729       -0.39181
H         -0.46433        3.61838        0.38634
H         -0.16679        3.61851       -1.37895
H          0.96160        4.46020       -0.28131
C         -2.81181       -0.48272       -0.84539
H         -2.98795       -1.32889       -1.51597
H         -3.27390        0.40124       -1.29766
C         -3.51727       -0.80245        0.46620
H         -3.07936       -1.67054        0.96013
H         -4.58408       -0.96683        0.31796
N         -3.38584        0.34582        1.41857
H         -3.80726        1.19599        1.02436
H         -2.39790        0.55283        1.61385
H         -3.85089        0.14682        2.31090
