55
id_705_cb.log	Energy: -572021.4328205
C         -2.99949        3.68134       -1.08193
H         -3.68721        3.90536       -0.26019
H         -3.58380        3.51196       -1.99063
H         -2.35221        4.54810       -1.24094
C         -2.17022        2.45699       -0.75243
C         -3.03593        1.22808       -0.50237
H         -3.58722        0.98356       -1.41698
H         -3.77607        1.47186        0.28553
N         -2.21365        0.08468       -0.11595
C         -1.46592        0.44849        1.08350
H         -2.15080        0.68928        1.92128
H         -0.82994       -0.38326        1.39360
C         -0.58782        1.66011        0.80913
O         -1.39924        2.76367        0.40886
C          0.20476        2.08271        2.02875
H          0.78249        2.98642        1.81450
H          0.89884        1.28635        2.31757
H         -0.46473        2.28758        2.87072
C         -3.05132       -1.08985        0.09968
H         -3.76880       -0.90748        0.92436
H         -3.64906       -1.23415       -0.81082
C         -2.30778       -2.39866        0.38952
C         -3.34554       -3.51918        0.48196
H         -3.81938       -3.68520       -0.49305
H         -4.13349       -3.27355        1.20159
H         -2.87976       -4.45877        0.79436
C         -1.24996       -2.75439       -0.67535
H         -1.67526       -2.57993       -1.67209
H         -1.05761       -3.83307       -0.60136
C          0.06996       -2.02751       -0.55044
C          0.56744       -1.21939       -1.57674
H         -0.00098       -1.12120       -2.49886
C          1.75998       -0.51877       -1.42970
H          2.10308        0.10838       -2.24915
C          2.50895       -0.58797       -0.24559
C          2.02777       -1.42573        0.76574
H          2.57616       -1.53172        1.69611
C          0.83851       -2.13919        0.60960
H          0.49282       -2.77640        1.42152
C          3.78596        0.24293       -0.10482
C          3.43936        1.73117       -0.27346
H          4.34547        2.34129       -0.18346
H          2.73142        2.05479        0.49873
H          2.99260        1.93281       -1.25238
C          4.78986       -0.16945       -1.19268
H          5.70620        0.42512       -1.10405
H          4.38217       -0.01275       -2.19651
H          5.05724       -1.22729       -1.09422
C          4.44720        0.05563        1.26290
H          3.77917        0.35789        2.07729
H          5.34814        0.67546        1.31924
H          4.74424       -0.98534        1.42976
H         -1.47830        2.23094       -1.57922
H          0.09827        1.41038       -0.01737
H         -1.80878       -2.32360        1.36438
