11
id_745_ca.log	Energy: -370998.8599038
C         -2.27951       -0.48220       -0.08088
H         -2.35960       -1.31538        0.62382
H         -2.37705       -0.89728       -1.09134
H         -3.07571        0.24367        0.09153
C         -0.93370        0.17475        0.02569
O         -0.79349        1.38648        0.01128
C          0.23728       -0.77489        0.17417
H          0.12077       -1.60285       -0.53192
H          0.17390       -1.20872        1.17913
S          1.87425       -0.04956       -0.11367
H          1.73323        0.97565        0.74337
