10
id_745_cb.log	Energy: -370704.1304256
C         -2.23504       -0.53690       -0.08070
H         -2.23882       -1.46513        0.49752
H         -2.38737       -0.80367       -1.13386
H         -3.05187        0.11359        0.23894
C         -0.90936        0.17683        0.03356
O         -0.86535        1.40085        0.04283
C          0.30198       -0.72174        0.12715
H          0.12842       -1.52749       -0.59984
H          0.18968       -1.20872        1.10894
S          1.95858        0.01097       -0.05840
