42
id_767_ca.log	Energy: -696795.9979282
C         -0.85767        3.40725        0.92347
H         -0.04947        2.86937        1.42752
H         -1.74034        3.39826        1.57015
H         -0.54281        4.44496        0.78069
C         -1.19133        2.79835       -0.42924
H         -0.34787        2.83576       -1.12028
H         -2.01387        3.33775       -0.89937
N         -1.63240        1.39200       -0.30948
C         -2.94208        1.13180       -0.29457
H         -3.58368        1.99470       -0.43429
C         -3.49238       -0.12528       -0.11794
C         -2.62494       -1.26894        0.06247
O         -3.01197       -2.44371        0.20495
C         -1.18883       -0.95034        0.06548
C         -0.71188        0.35899       -0.10868
C          0.67124        0.61914       -0.09785
H          1.03494        1.62592       -0.24928
C          1.59090       -0.40311        0.10606
C          1.07461       -1.70666        0.29469
C         -0.26105       -1.98728        0.26773
H         -0.60594       -3.00349        0.42789
F          1.94552       -2.70698        0.55335
N          2.97761       -0.19502        0.18725
C          3.40719        1.20142        0.25902
H          3.23597        1.72329       -0.69685
H          2.84447        1.71834        1.03973
C          4.87649        1.27815        0.62384
H          5.07532        0.81734        1.59298
H          5.22217        2.31173        0.62617
N          5.68749        0.52736       -0.38489
H          6.67842        0.55017       -0.11961
H          5.61122        0.99236       -1.29914
C          5.22681       -0.89034       -0.51165
H          5.81154       -1.36147       -1.30177
H          5.43126       -1.37657        0.44403
C          3.75064       -0.90849       -0.84537
H          3.43160       -1.94789       -0.90926
H          3.58274       -0.43667       -1.82673
C         -4.95479       -0.26070       -0.11858
O         -5.57581       -1.29266        0.08230
O         -5.59882        0.89975       -0.36518
H         -6.55915        0.72785       -0.33263
