17
id_738_cb.log	Energy: -532305.8266379
C          2.48036        1.10126       -0.01450
H          3.39827        1.68154       -0.02343
C          1.26256        1.72925       -0.03092
H          1.21154        2.81195       -0.04650
C          0.05446        1.00365       -0.00366
C          0.09917       -0.42052        0.01697
C          1.32113       -1.04697        0.02845
H          1.38204       -2.12924        0.02387
C          2.57467       -0.32839        0.02846
O          3.68464       -0.94378        0.05583
C         -1.11896       -1.32384       -0.03228
F         -0.76367       -2.61462       -0.19374
F         -1.85221       -1.29510        1.09431
F         -1.93338       -1.04578       -1.06605
N         -1.14632        1.75127        0.03437
O         -1.10245        2.97562       -0.15376
O         -2.21526        1.17938        0.26538
