21
id_772_ca.log	Energy: -658881.9735772
C         -0.29969       -0.13284       -0.82304
H          0.46645       -0.58185       -1.44650
C         -1.57895       -0.69346       -0.83176
H         -1.78382       -1.55777       -1.45534
C         -2.57661       -0.14355       -0.03968
C         -2.32712        0.96286        0.77060
H         -3.11471        1.38504        1.38666
C         -1.05625        1.52162        0.77928
H         -0.83448        2.38476        1.39932
C         -0.04576        0.97713       -0.01772
O          1.17792        1.60044        0.07810
C          2.21236        1.18447       -0.79316
H          1.86343        1.08114       -1.82504
H          2.97114        1.97059       -0.75906
C          2.88074       -0.11510       -0.37441
O          3.59463       -0.74168       -1.15980
N          2.69761       -0.46532        0.90860
H          2.00712       -0.03046        1.51265
O          3.13998       -1.69907        1.33194
H          4.01253       -1.55173        1.74206
Cl        -4.17785       -0.85216       -0.05515
