20
id_785_ca.log	Energy: -323318.7669168
C          4.03673       -0.24324       -0.08675
H          4.38550       -0.14560       -1.12114
H          4.36486       -1.21509        0.29091
H          4.52561        0.54255        0.49746
C          2.53908       -0.11075       -0.02109
C          1.72406       -1.21921        0.22826
H          2.18086       -2.18987        0.40351
C          0.33594       -1.09850        0.26570
H         -0.26530       -1.97658        0.48706
C         -0.26111        0.14852        0.06093
C          0.54560        1.26832       -0.17312
H          0.08181        2.23878       -0.32479
C          1.92756        1.13535       -0.21931
H          2.54603        2.00922       -0.41011
C         -1.73812        0.35307        0.11281
O         -2.24903        1.40749        0.50474
N         -2.48405       -0.67043       -0.36057
H         -2.10647       -1.59302       -0.54806
O         -3.84084       -0.66644       -0.11026
H         -4.26389       -0.30713       -0.91125
