45
id_701_ca.log	Energy: -1082866.0997893
C          0.58341        2.55643        0.82997
H          0.17573        1.62051        1.22749
H          0.25736        2.67508       -0.20932
H          0.17912        3.38706        1.41535
C          2.09153        2.55838        0.92344
H          2.52226        3.49251        0.54797
H          2.42627        2.39672        1.95347
O          2.56418        1.47099        0.10913
C          3.87606        1.13821        0.18049
C          4.86440        1.86700        0.84115
H          4.61546        2.79173        1.34951
C          6.18153        1.40057        0.83825
H          6.94275        1.97880        1.35300
C          6.52715        0.21683        0.19109
H          7.55297       -0.13575        0.19544
C          5.54152       -0.52139       -0.46693
H          5.76659       -1.44885       -0.98452
C          4.24287       -0.04961       -0.46274
O          3.26609       -0.74995       -1.19722
S          2.11074       -1.56299       -0.42206
O          1.98086       -2.84522       -1.07422
O          2.34930       -1.50561        1.00543
N          0.83734       -0.59791       -0.89967
H          1.09217        0.39615       -0.89660
C         -0.44893       -0.95895       -0.45465
O         -0.65448       -2.03703        0.07362
N         -1.36471        0.01316       -0.74182
H         -1.02975        0.86391       -1.18895
C         -2.71729        0.05973       -0.39309
N         -3.25847       -0.98305        0.22856
C         -4.55004       -0.85344        0.52096
C         -5.30955        0.27597        0.20693
H         -6.35845        0.32785        0.46370
C         -4.61231        1.28512       -0.44290
N         -3.31070        1.19120       -0.74860
O         -5.15961        2.44668       -0.82814
C         -6.54936        2.65202       -0.55714
H         -7.15260        1.89533       -1.06616
H         -6.77972        3.63987       -0.95240
H         -6.73563        2.62744        0.52005
O         -5.17776       -1.85192        1.15199
C         -4.41667       -3.01925        1.49211
H         -3.59761       -2.75786        2.16495
H         -5.12249       -3.67997        1.99318
H         -4.02499       -3.49557        0.59123
