47
id_742_ca.log	Energy: -792537.3122401
C         -1.19247        3.07652        1.31344
H         -0.77976        4.08930        1.33374
H         -0.50992        2.40838        1.84865
H         -2.15678        3.07931        1.82936
C         -1.37080        2.63302       -0.13220
C         -0.06876        2.59170       -0.90932
H          0.43548        3.55654       -0.86359
H         -0.24485        2.31150       -1.95348
O          0.83397        1.64656       -0.32148
C          0.31148        0.40108       -0.15601
C         -1.08116        0.18754       -0.10602
N         -1.94724        1.27279       -0.18828
C         -3.26812        1.08744       -0.17383
H         -3.85408        2.00272       -0.21134
C         -3.86333       -0.15587       -0.08220
C         -3.04970       -1.34862        0.03875
O         -3.50611       -2.50189        0.13171
C         -1.59596       -1.11289        0.01265
C         -0.70992       -2.18985        0.13138
H         -1.08127       -3.20211        0.24910
C          0.64058       -1.94586        0.13831
C          1.20868       -0.66660       -0.02454
N          2.58469       -0.39493       -0.08486
C          3.51205       -1.44172       -0.50793
H          3.72611       -2.15578        0.30064
H          3.09378       -1.98902       -1.35485
C          4.81115       -0.79786       -0.95904
H          5.54508       -1.55646       -1.23658
H          4.65550       -0.10814       -1.79205
N          5.40551        0.00769        0.15778
H          5.60326       -0.63808        0.93483
C          4.42599        1.02665        0.65499
H          4.88460        1.53235        1.50627
H          4.27337        1.73711       -0.16201
C          3.12772        0.35374        1.05289
H          3.29983       -0.32052        1.90734
H          2.42462        1.12714        1.36469
C          6.68973        0.64088       -0.24888
H          7.37868       -0.14374       -0.56133
H          6.48452        1.32154       -1.07593
H          7.09158        1.18627        0.60504
F          1.47223       -2.99518        0.31906
C         -5.33678       -0.25620       -0.04130
O         -6.05403        0.63513       -0.75975
O         -5.94730       -1.08112        0.61302
H         -2.06628        3.29245       -0.65690
H         -5.50890        1.13886       -1.39052
