12
id_765_cb.log	Energy: -405443.2412520
C         -2.54685       -0.60145       -0.29439
H         -3.17289        0.23470        0.02820
H         -3.04515       -1.53557       -0.03645
H         -2.42614       -0.54812       -1.38107
N         -1.25953       -0.56629        0.37546
H         -0.92684       -1.39990        0.84397
C         -0.40536        0.46069        0.22713
O         -0.73567        1.48439       -0.40900
C          0.95723        0.29949        0.84124
H          0.89166       -0.34737        1.72177
H          1.28920        1.28950        1.16641
S          2.12888       -0.40980       -0.39644
