21
id_79_cb.log	Energy: -266543.6012393
C         -2.69652       -0.19889        1.25614
H         -2.27313        0.23889        2.16673
H         -2.53188       -1.28265        1.29341
H         -3.77874       -0.02406        1.26268
C         -2.05513        0.40177       -0.00008
H         -2.25797        1.48113       -0.00029
C         -2.69657       -0.19939       -1.25603
H         -2.53196       -1.28317       -1.29286
H         -2.27322        0.23801       -2.16680
H         -3.77879       -0.02455       -1.26259
C         -0.54754        0.22925       -0.00006
C          0.04712       -1.04192        0.00008
H         -0.58629       -1.92901        0.00016
C          1.42897       -1.20762        0.00011
H          1.85705       -2.20874        0.00022
C          2.31907       -0.09730        0.00001
C          1.70393        1.18245       -0.00012
H          2.34503        2.06238       -0.00020
C          0.31703        1.32996       -0.00016
H         -0.10702        2.33412       -0.00027
O          3.62434       -0.24903        0.00006
