21
id_712_ca.log	Energy: -942977.2607949
C         -0.46156       -0.15829       -0.19354
C          0.63224        0.82542        0.25309
C          2.05591        0.54168       -0.28649
C          2.64629       -0.86584       -0.03903
F          2.06401       -1.76481       -0.82738
F          2.49452       -1.22586        1.23325
F          3.94819       -0.83885       -0.32229
F          2.88310        1.43005        0.29760
F          2.06332        0.75833       -1.61471
F          0.33897        2.08306       -0.14909
F          0.71346        0.83766        1.60503
C         -1.85429        0.47537       -0.04514
C         -3.00485       -0.55480       -0.13740
F         -2.81063       -1.37538       -1.17103
F         -3.10023       -1.27649        0.97688
F         -4.16046        0.08724       -0.31720
F         -1.99146        1.11599        1.14048
F         -2.05926        1.38099       -1.02712
O         -0.34843       -1.36179        0.50752
H         -0.41722       -1.21405        1.46876
H         -0.32963       -0.38024       -1.25773
