42
id_784_ca.log	Energy: -943747.7383943
C          0.60478        1.75328       -0.15076
H          0.86242        2.53650        0.57197
H          0.14618        2.22321       -1.02550
H         -0.14053        1.09203        0.30477
C          1.87065        1.00780       -0.57484
C          2.48136        0.25262        0.65435
N          1.80698       -1.02792        0.74013
C          1.45020       -1.66988       -0.53678
S          1.44637       -0.33957       -1.78933
C          0.11863       -2.13635        0.11276
C          0.55017       -1.23371        1.28154
O          0.01509       -0.78347        2.26961
N         -1.10593       -1.75827       -0.52673
H         -1.10754       -0.90895       -1.08910
C         -2.28963       -2.25087       -0.10652
O         -2.39474       -3.19026        0.68550
C         -3.53214       -1.61113       -0.70640
H         -4.30886       -1.57235        0.06377
H         -3.87979       -2.24961       -1.52273
O         -3.29368       -0.33948       -1.27720
C         -3.06938        0.72167       -0.42282
C         -2.96776        0.59959        0.96381
H         -3.08654       -0.35540        1.46598
C         -2.69796        1.74058        1.72523
H         -2.61008        1.64149        2.80341
C         -2.53847        2.98434        1.12001
H         -2.32608        3.86315        1.72098
C         -2.65406        3.09021       -0.26903
H         -2.53236        4.05370       -0.75573
C         -2.91688        1.96483       -1.04201
H         -3.00004        2.02847       -2.12319
C          3.97767        0.02678        0.49171
O          4.44087       -0.94321       -0.06846
O          4.79108        0.97256        0.96748
H          4.30548        1.68755        1.41935
C          2.84625        1.97842       -1.23740
H          2.36328        2.46502       -2.08990
H          3.75151        1.47961       -1.59642
H          3.12847        2.75851       -0.52128
H          2.28341        0.82246        1.56748
H          2.11944       -2.46841       -0.85174
H          0.11284       -3.19868        0.36095
