13
id_797_ca.log	Energy: -769631.1412218
C          0.99761        2.25846       -0.00000
H          1.31628        3.29573       -0.00000
C          1.94885        1.24715       -0.00000
H          3.01149        1.46777       -0.00000
C          1.54740       -0.08861       -0.00000
C          0.18218       -0.40187        0.00000
C         -0.76172        0.62859        0.00000
C         -0.36421        1.95998        0.00000
H         -1.11189        2.74566        0.00000
Cl        -2.46045        0.25500        0.00000
Cl        -0.29480       -2.07192       -0.00000
O          2.52216       -1.03844        0.00000
H          2.14528       -1.93619       -0.00000
