14
id_793_ca.log	Energy: -193016.3747911
C         -2.71353       -0.21686       -0.00000
H         -3.52313        0.51936        0.00006
H         -2.83354       -0.85096        0.88556
H         -2.83355       -0.85083       -0.88565
C         -1.34979        0.46698        0.00004
H         -1.25486        1.11257        0.88037
H         -1.25487        1.11270       -0.88020
C         -0.22103       -0.55532       -0.00004
H         -0.28085       -1.21194       -0.87737
H         -0.28084       -1.21207        0.87719
C          1.14620        0.06459       -0.00001
O          1.38506        1.25854       -0.00002
O          2.12723       -0.85532        0.00003
H          2.99227       -0.40098        0.00003
