45
id_710_ca.log	Energy: -845946.4935717
C          6.78312        0.72819       -0.31418
H          7.49702       -0.08117       -0.46689
H          6.60339        1.26245       -1.24791
H          7.13740        1.41222        0.45698
N          5.49295        0.13860        0.13606
H          5.66781       -0.37301        1.01214
C          4.95747       -0.84192       -0.86248
H          5.71511       -1.61580       -0.99804
H          4.81729       -0.29047       -1.79545
C          3.65881       -1.44515       -0.35941
H          3.28431       -2.12756       -1.12454
H          3.85853       -2.01783        0.55759
N          2.68958       -0.37292       -0.13367
C          3.17744        0.56810        0.88328
H          3.32945        0.04535        1.84067
H          2.45052        1.36546        1.04310
C          4.47648        1.19963        0.42606
H          4.89015        1.84597        1.20193
H          4.34410        1.76597       -0.49954
C          1.32723       -0.68613       -0.05159
C          0.78650       -1.94363        0.27806
C         -0.56056       -2.18890        0.29736
H         -0.92823       -3.17645        0.55446
C         -1.46509       -1.15639        0.02382
C         -0.99488        0.13614       -0.28859
C          0.39823        0.31310       -0.34169
F          0.91339        1.50269       -0.70513
N         -1.91304        1.15930       -0.55356
C         -3.22843        0.88784       -0.50643
H         -3.86714        1.74689       -0.69011
C         -3.76939       -0.34375       -0.22018
C         -2.90601       -1.46016        0.08830
O         -3.30625       -2.60282        0.36285
C         -5.23841       -0.49246       -0.13770
O         -5.80346       -1.21477        0.66140
O         -5.99507        0.23465       -0.98425
C         -1.52616        2.58184       -0.67525
H         -2.41222        3.11370       -1.02304
H         -0.74910        2.70329       -1.42618
C         -1.09326        3.15795        0.65265
H         -0.80234        4.20292        0.52650
H         -0.28618        2.59659        1.12868
F         -2.18805        3.11786        1.52733
F          1.62739       -2.94492        0.60349
H         -5.47112        0.64385       -1.69560
