47
id_740_ca.log	Energy: -792522.0564620
C         -1.14902        3.15674        1.21976
H         -0.71890        4.16179        1.21048
H         -2.11403        3.19189        1.73194
H         -0.47950        2.49317        1.77540
C         -1.33060        2.67216       -0.21175
C         -0.02414        2.58276       -0.97819
H         -0.19863        2.26866       -2.01256
H          0.49226        3.54195       -0.96427
O          0.85779        1.64774       -0.34761
C          0.31411        0.41362       -0.16461
C         -1.08088        0.22351       -0.11721
N         -1.93103        1.32049       -0.22280
C         -3.25269        1.15678       -0.20034
H         -3.84660        2.06263       -0.27577
C         -3.85820       -0.07773       -0.08840
C         -3.06282       -1.26891        0.03769
O         -3.55618       -2.41640        0.15641
C         -1.61364       -1.06877        0.01830
C         -0.74628       -2.15799        0.15535
H         -1.13542       -3.16138        0.28301
C          0.60784       -1.93723        0.16828
C          1.19074       -0.66565       -0.00615
N          2.57029       -0.41603       -0.06088
C          3.48625       -1.48742       -0.44247
H          3.06427       -2.05961       -1.27016
H          3.69016       -2.17595        0.38960
C          4.79140       -0.87158       -0.91486
H          4.63990       -0.21119       -1.77145
H          5.52118       -1.64343       -1.16343
N          5.39025       -0.02704        0.17075
C          4.41702        1.01738        0.62790
H          4.88046        1.55428        1.45656
H          4.26567        1.69245       -0.21795
C          3.11624        0.36579        1.05141
H          2.41844        1.15410        1.33447
H          3.28657       -0.27551        1.93030
C          6.67838        0.58184       -0.25838
H          7.08166        1.15744        0.57431
H          6.47737        1.23032       -1.11155
H          7.36270       -0.21843       -0.53835
F          1.42199       -2.98993        0.35731
C         -5.33591       -0.11931       -0.09400
O         -6.03601        0.87418       -0.20396
O         -5.88954       -1.32678        0.03032
H         -5.15552       -2.00329        0.10580
H         -2.01352        3.32508       -0.75938
H          5.58173       -0.64342        0.97257
