6
id_717_cb.log	Energy: -153430.4518256
C          0.70808        0.47112        0.00002
H          1.17086        1.46700        0.00008
O          1.39472       -0.58573       -0.00013
N         -0.60792        0.51586        0.00009
H         -1.06729        1.42293        0.00017
O         -1.40680       -0.58023        0.00001
