44
id_774_cb.log	Energy: -721136.7147353
C          1.08422        3.39155       -0.92855
H          0.28364        2.83141       -1.41970
H          1.96010        3.39482       -1.58357
H          0.74860        4.42283       -0.79156
C          1.44307        2.79765        0.42423
H          0.60406        2.82284        1.12118
H          2.25723        3.35784        0.88445
N          1.91004        1.40127        0.31041
C          3.22644        1.16334        0.29140
H          3.85237        2.03803        0.42660
C          3.79661       -0.08106        0.11825
C          2.94950       -1.24475       -0.05807
O          3.35632       -2.40748       -0.20038
C          1.50860       -0.94785       -0.05674
C          1.00700        0.35138        0.11380
C         -0.37971        0.58464        0.10376
H         -0.76055        1.58409        0.25659
C         -1.28443       -0.45370       -0.09645
C         -0.74250       -1.74916       -0.28538
C          0.59869       -2.00022       -0.25376
H          0.96493       -3.00860       -0.41068
F         -1.58758       -2.76603       -0.53966
N         -2.66771       -0.26498       -0.18273
C         -3.12416        1.12454       -0.22193
H         -2.93923        1.62952        0.73985
H         -2.57275        1.65876       -1.00072
C         -4.60805        1.17396       -0.54249
H         -4.77354        0.75667       -1.55269
H         -4.93188        2.21904       -0.55751
N         -5.39128        0.44650        0.45378
C         -4.93544       -0.94181        0.46745
H         -5.50326       -1.49676        1.22063
H         -5.11380       -1.42362       -0.51151
C         -3.45851       -1.02878        0.80151
H         -3.14726       -2.07192        0.79466
H         -3.28217       -0.62221        1.80910
C         -6.80023        0.48981        0.08672
H         -6.98484        0.04558       -0.90663
H         -7.14780        1.52648        0.06755
H         -7.39268       -0.06067        0.82287
C          5.26157       -0.19686        0.11544
O          5.89572       -1.21815       -0.08032
O          5.88637        0.97655        0.35404
H          6.84643        0.80701        0.31604
