15
id_762_cb.log	Energy: -227407.5636174
C          1.96973        1.12016       -0.50743
H          2.89123        1.33336       -1.05849
H          1.87539        1.86255        0.29406
H          1.12893        1.26330       -1.19655
C          1.98146       -0.29548        0.06261
H          2.04901       -1.02572       -0.75217
H          2.86754       -0.43782        0.69099
C          0.73575       -0.59346        0.90528
H          0.69620        0.08594        1.76476
H          0.78186       -1.61814        1.29217
C         -0.52497       -0.47191        0.07978
O         -0.71291       -1.20067       -0.93727
N         -1.39892        0.44044        0.46999
H         -1.19901        1.00569        1.29035
O         -2.57090        0.68715       -0.16978
