24
id_759_cb.log	Energy: -597719.0759823
C          3.23855       -1.44727        0.25792
H          2.74765       -2.31682        0.69897
H          3.86168       -0.95994        1.01346
H          3.89024       -1.77213       -0.55807
C          2.25981       -0.43796       -0.27667
O          2.64535        0.60925       -0.82992
N          0.95432       -0.71921       -0.13982
H          0.64522       -1.46933        0.48073
C         -0.06801        0.24000       -0.48601
C          0.11154        1.49881        0.35268
O          0.58345        1.54113        1.47165
O         -0.29447        2.59946       -0.29590
H         -0.18195        3.37426        0.28910
C         -1.48466       -0.41327       -0.35181
C         -2.55753        0.66274       -0.54301
H         -2.40775        1.21440       -1.48182
H         -2.56877        1.37896        0.28419
H         -3.53998        0.18198       -0.58180
C         -1.61199       -1.41795       -1.50653
H         -1.50498       -0.91609       -2.47850
H         -2.59821       -1.89097       -1.46926
H         -0.85818       -2.20840       -1.43941
S         -1.68938       -1.26481        1.26910
H          0.06400        0.54630       -1.53047
