12
id_746_cb.log	Energy: -475803.4982415
C          0.60441       -1.00173        0.84205
H          1.01862       -0.94648        1.85707
H          0.52521       -2.05039        0.55282
C         -0.71190       -0.21974        0.71717
C         -0.26753        1.10882        0.15620
O         -0.88252        2.16473        0.11407
N          1.00972        0.95195       -0.36195
H          1.48961        1.67080       -0.89878
C          1.56657       -0.27001       -0.06140
O          2.66434       -0.64186       -0.44998
S         -1.89438       -0.94786       -0.49361
H         -1.19530       -0.05892        1.68332
