9
id_73_cb.log	Energy: -346793.3659047
C          1.16955        0.45355        0.35425
H          1.03072        0.30087        1.43276
H          1.88763        1.27364        0.20868
C         -0.15242        0.81626       -0.29539
H          0.01571        0.88470       -1.37872
H         -0.39872        1.82939        0.04569
S         -1.55025       -0.31914        0.06916
O          1.69974       -0.73634       -0.24034
H          2.56798       -0.91050        0.15452
