26
id_791_cb.log	Energy: -443339.3816641
C         -4.82007       -0.08219        0.04956
H         -5.90345       -0.01066        0.04468
C         -4.05763        0.70307       -0.81449
H         -4.54689        1.38629       -1.50292
C         -2.66521        0.62138       -0.81963
H         -2.08671        1.22436       -1.50769
C         -2.02269       -0.25535        0.06274
C         -2.78613       -1.05117        0.92671
H         -2.28201       -1.73553        1.60464
C         -4.17491       -0.96555        0.91662
H         -4.75241       -1.58893        1.59312
N         -0.62169       -0.41847        0.09709
H         -0.29337       -1.27558        0.52995
C          0.33355        0.51117       -0.21183
O          0.03551        1.66724       -0.54262
C          1.73366        0.02174       -0.13407
C          2.04054       -1.25509       -0.63213
H          1.24112       -1.85979       -1.05635
C          3.33770       -1.75043       -0.62993
H          3.55617       -2.73248       -1.03682
C          4.35696       -0.94337       -0.09949
H          5.38206       -1.30747       -0.08668
C          4.07796        0.31213        0.41071
H          4.87368        0.92553        0.82795
C          2.75723        0.86138        0.42467
O          2.52671        2.02490        0.94436
