47
id_723_cb.log	Energy: -860613.4528247
C          5.21721        3.33460       -0.70283
H          4.71190        4.29646       -0.60542
H          5.58948        3.20983       -1.72405
H          6.04485        3.27326        0.01019
O          4.23056        2.35159       -0.40685
N          4.79718        1.07808       -0.50122
C          3.92083        0.17778       -0.28004
C          2.46529        0.41058       -0.00301
H          2.01317        1.02916       -0.78952
H          2.30630        0.92402        0.95174
N          1.90400       -0.94354        0.00614
C          2.86909       -1.93031       -0.52178
H          2.77550       -2.88254        0.00023
H          2.70153       -2.09246       -1.59300
C          4.23759       -1.28952       -0.26327
C          4.80363       -1.71095        1.11054
H          4.88423       -2.80191        1.11350
H          4.09018       -1.43723        1.89541
N          6.10563       -1.14938        1.44892
H          6.04749       -0.13148        1.43012
H          6.77185       -1.40068        0.71853
C          0.55324       -1.07299       -0.03942
C         -0.11951       -2.31165       -0.27533
C         -1.47604       -2.37708       -0.30454
H         -1.96856       -3.32748       -0.48656
C         -2.23412       -1.20413       -0.09601
C         -3.69505       -1.23257       -0.11126
O         -4.30847       -2.30916       -0.29631
C         -4.32400        0.04845        0.13702
C         -3.53966        1.14684        0.37871
H         -3.99915        2.10481        0.59340
N         -2.18716        1.15537        0.35967
C         -1.50295       -0.03114        0.13816
N         -0.16780        0.02928        0.17120
C         -1.45053        2.37615        0.63508
H         -1.01579        2.39504        1.62942
C         -0.68630        3.03031       -0.47012
H          0.27505        3.46448       -0.21588
H         -0.74486        2.56224       -1.44776
C         -1.94459        3.66496        0.05671
H         -2.81866        3.63344       -0.58615
H         -1.86684        4.54367        0.68746
C         -5.82160        0.26625        0.12420
O         -6.52215       -0.48445       -0.60762
O         -6.27267        1.21424        0.82943
F          0.60305       -3.43856       -0.46214
H          4.95866       -1.55561       -1.04155
