44
id_776_cb.log	Energy: -721166.5675508
C         -1.17578        3.40430       -0.94094
H         -2.06827        3.40259       -1.57429
H         -0.38306        2.85168       -1.45403
H         -0.84471        4.43888       -0.81152
C         -1.49595        2.80556        0.42013
H         -0.63860        2.83754        1.09483
H         -2.30093        3.36202        0.90160
N         -1.96036        1.40868        0.31840
C         -3.28481        1.16746        0.30969
H         -3.91271        2.04151        0.44877
C         -3.86801       -0.06550        0.13675
C         -3.02404       -1.22546       -0.01331
O         -3.43335       -2.40549       -0.10357
C         -1.58089       -0.94281       -0.03006
C         -1.07084        0.35935        0.11909
C          0.32117        0.58553        0.08647
H          0.70762        1.58692        0.21492
C          1.21329       -0.45900       -0.11095
C          0.66546       -1.75459       -0.27023
C         -0.67503       -2.00360       -0.22400
H         -1.04377       -3.01454       -0.36331
F          1.51330       -2.77950       -0.51930
N          2.60622       -0.28474       -0.21066
C          3.06296        1.10020       -0.30870
H          2.51630        1.61242       -1.10410
H          2.89576        1.64674        0.63421
C          4.53662        1.14200       -0.66240
H          4.73840        0.64950       -1.61705
H          4.89571        2.17183       -0.69445
N          5.34366        0.41539        0.36842
H          5.20391        0.89354        1.26908
C          4.84484       -0.98781        0.51636
H          5.05215       -1.49339       -0.43064
H          5.41602       -1.45671        1.31935
C          3.36555       -0.98454        0.83966
H          3.03740       -2.02030        0.92012
H          3.19598       -0.49429        1.81187
C          6.79725        0.45136        0.05162
H          7.33739       -0.05883        0.84901
H          7.11000        1.49315       -0.01746
H          6.94832       -0.05816       -0.90079
C         -5.38023       -0.11048        0.11146
O         -5.93914       -1.04108       -0.53129
O         -5.99235        0.81610        0.71744
