44
id_773_ca.log	Energy: -721162.5352628
C         -1.09513        3.39588       -0.92877
H         -0.76025        4.42757       -0.78789
H         -1.97831        3.40282       -1.57485
H         -0.29776        2.84176       -1.43245
C         -1.43926        2.79535        0.42510
H         -0.59414        2.81766        1.11476
H         -2.25069        3.35144        0.89532
N         -1.90728        1.39757        0.30807
C         -3.22160        1.16298        0.29312
H         -3.84664        2.03855        0.42927
C         -3.79602       -0.08404        0.12052
C         -2.94997       -1.24544       -0.05187
O         -3.36094       -2.41405       -0.18507
C         -1.50978       -0.95442       -0.05768
C         -1.00637        0.34605        0.10987
C          0.38063        0.57988        0.09560
H          0.76199        1.58025        0.24246
C          1.28688       -0.45823       -0.10495
C          0.74091       -1.75282       -0.28961
C         -0.59952       -2.00777       -0.25899
H         -0.96252       -3.01787       -0.41804
F          1.58634       -2.77339       -0.55783
N          2.66996       -0.26857       -0.18852
C          3.45446       -1.01706        0.81374
H          3.26224       -0.59383        1.81253
H          3.14688       -2.06212        0.82179
C          4.93452       -0.93349        0.49443
H          5.49484       -1.47259        1.26454
H          5.12662       -1.43172       -0.47426
N          5.39243        0.45460        0.45582
C          4.61196        1.16914       -0.55329
H          4.93445        2.21447       -0.57881
H          4.78881        0.73736       -1.55594
C          3.12622        1.12167       -0.24325
H          2.93249        1.63683        0.71195
H          2.58044        1.64543       -1.03306
C          6.80522        0.49249        0.09654
H          7.15191        1.52905        0.06154
H          6.99002        0.03057       -0.88889
H          7.39287       -0.04630        0.84511
C         -5.26051       -0.18969        0.11753
O         -5.90320       -1.20755       -0.08853
O         -5.88172        0.98313        0.36615
H         -6.84513        0.83078        0.32910
