45
id_788_cb.log	Energy: -1127381.5525757
C          0.53143        1.60961        1.95354
H          1.20908        2.07028        2.67836
H          0.93125        1.78065        0.94886
H          0.49880        0.53198        2.14569
C         -0.84388        2.22068        2.09449
H         -0.84500        3.28938        1.86500
H         -1.26238        2.06905        3.09334
O         -1.69629        1.54695        1.14189
C         -2.96537        1.92132        1.07590
O         -3.43639        2.84885        1.71707
C         -3.75117        1.13372        0.11290
C         -4.90994        1.59244       -0.53511
H         -5.40449        2.54730       -0.41955
N         -5.36921        0.69158       -1.39331
N         -4.53723       -0.36101       -1.30703
C         -3.55064       -0.14139       -0.41378
S         -2.32843       -1.35766        0.05958
O         -2.80048       -2.65455       -0.46254
O         -2.26729       -1.28488        1.53150
N         -1.05666       -0.79475       -0.72102
C          0.17504       -1.11281       -0.23618
O          0.45029       -1.91141        0.66625
N          1.15152       -0.40244       -0.93985
H          0.78679        0.26540       -1.61049
C          2.49697       -0.23703       -0.66718
N          3.07504        0.72254       -1.39191
C          4.38076        0.91562       -1.17954
C          5.11831        0.18101       -0.26077
H          6.17269        0.32291       -0.06966
C          4.38514       -0.78948        0.42617
N          3.09163       -1.02041        0.23667
O          5.05311       -1.52571        1.32680
C          4.32396       -2.52162        2.05547
H          3.51923       -2.06132        2.63241
H          5.05535       -2.97581        2.72260
H          3.91473       -3.27129        1.37538
O          4.90001        1.89309       -1.94257
C          6.29199        2.18549       -1.79498
H          6.49509        2.99566       -2.49343
H          6.89614        1.31090       -2.05217
H          6.50862        2.51055       -0.77358
C         -4.80073       -1.52691       -2.15084
H         -3.89113       -1.82296       -2.67116
H         -5.55686       -1.21719       -2.86974
H         -5.17355       -2.35434       -1.54758
