25
id_759_ca.log	Energy: -598010.5119137
C          3.26954       -1.50001        0.23925
H          2.78470       -2.42133        0.56659
H          3.85180       -1.08158        1.06510
H          3.95725       -1.72137       -0.58160
C          2.28803       -0.46205       -0.22504
O          2.65179        0.64762       -0.64673
N          0.97928       -0.77994       -0.17101
H          0.69210       -1.64369        0.27835
C         -0.02310        0.19533       -0.53969
C          0.15686        1.45595        0.30547
O          0.42968        1.45129        1.48803
O         -0.04339        2.56932       -0.40046
H          0.04089        3.34455        0.18972
C         -1.45603       -0.37900       -0.42666
C         -2.48046        0.69607       -0.79106
H         -2.27594        1.08116       -1.79733
H         -2.47167        1.53173       -0.08602
H         -3.48323        0.25849       -0.78654
C         -1.59628       -1.56719       -1.38087
H         -1.38227       -1.23740       -2.40404
H         -2.62319       -1.94496       -1.35115
H         -0.92270       -2.39105       -1.13035
S         -1.72553       -0.94187        1.32418
H         -2.78716       -1.70955        1.01995
H          0.11684        0.48400       -1.58755
