22
id_733_ca.log	Energy: -277014.7072782
C         -3.60385        1.28233       -0.00704
H         -3.61708        1.54517       -1.07117
H         -3.08899        2.08773        0.52949
H         -4.64041        1.25382        0.34463
C         -2.90003       -0.05381        0.21367
H         -3.44438       -0.84995       -0.31130
H         -2.92097       -0.31121        1.28089
C         -1.45104       -0.03724       -0.26822
H         -0.90709        0.76127        0.25821
H         -1.42472        0.21823       -1.33744
C         -0.74121       -1.37176       -0.05141
H         -1.29026       -2.16891       -0.56608
H         -0.73986       -1.62273        1.01637
C          0.69854       -1.36809       -0.57162
H          0.71796       -1.15847       -1.64646
H          1.16509       -2.34757       -0.41443
C          1.54706       -0.36533        0.17269
O          1.61582       -0.32218        1.40454
N          2.19789        0.52104       -0.61594
H          2.34259        0.34015       -1.60468
O          3.18163        1.30930       -0.05000
H          2.78645        2.19168        0.06878
