43
id_773_cb.log	Energy: -720878.5082874
C          1.13802        3.39719        0.95002
H          0.80579        4.43193        0.82493
H          2.02836        3.39349        1.58646
H          0.34433        2.84073        1.45739
C          1.46366        2.80578       -0.41305
H          0.60826        2.84027       -1.09007
H          2.26956        3.36586       -0.88879
N          1.92929        1.40912       -0.31687
C          3.25385        1.16928       -0.30776
H          3.88102        2.04433       -0.44376
C          3.83790       -0.06377       -0.13752
C          2.99401       -1.22459        0.00978
O          3.40552       -2.40488        0.09843
C          1.55210       -0.94329        0.02551
C          1.03978        0.35829       -0.12144
C         -0.35190        0.58339       -0.09122
H         -0.73753        1.58473       -0.21970
C         -1.24975       -0.45992        0.10334
C         -0.69602       -1.75530        0.26524
C          0.64441       -2.00325        0.21929
H          1.01239       -3.01411        0.36153
F         -1.53686       -2.78411        0.52614
N         -2.63604       -0.27928        0.20143
C         -3.41672       -1.00955       -0.81680
H         -3.22164       -0.56932       -1.80791
H         -3.10836       -2.05431       -0.84176
C         -4.89824       -0.93307       -0.50153
H         -5.45552       -1.45906       -1.28285
H         -5.09335       -1.44849        0.45757
N         -5.35799        0.45364       -0.43973
C         -4.58092        1.15085        0.58410
H         -4.90423        2.19541        0.62689
H         -4.76066        0.70154        1.57853
C         -3.09456        1.10913        0.27681
H         -2.90048        1.63963       -0.67007
H         -2.55015        1.62181        1.07485
C         -6.77182        0.48421       -0.08421
H         -7.11929        1.51982       -0.03191
H         -6.95941        0.00488        0.89236
H         -7.35695       -0.04154       -0.84396
C          5.34986       -0.10715       -0.11101
O          5.91010       -1.03888        0.52932
O          5.96199        0.82199       -0.71353
