46
id_764_ca.log	Energy: -1104384.8331773
C          3.14198        2.11576        3.08501
H          3.93629        2.48796        3.73371
H          2.48382        1.45657        3.66126
H          2.56466        2.95569        2.69912
N          3.75873        1.38446        1.98225
C          5.00596        0.68879        2.29129
H          5.82671        1.40581        2.38139
H          5.24366       -0.04592        1.52366
H          4.88288        0.16591        3.24392
C          3.06537        1.22350        0.85751
O          1.90684        1.65838        0.69573
C          3.73195        0.55222       -0.31406
C          4.85044        1.12489       -0.92331
H          5.31560        2.00254       -0.48303
C          5.34779        0.56339       -2.09195
H          6.21317        0.98624       -2.59003
C          4.71361       -0.55706       -2.62475
H          5.07061       -1.01866       -3.53939
N          3.64863       -1.12654       -2.05085
C          3.19702       -0.57220       -0.93961
S          1.81326       -1.46105       -0.19017
O          1.64309       -2.74761       -0.84707
O          1.99744       -1.43289        1.26111
N          0.54380       -0.45757       -0.65039
H          0.79019        0.52946       -0.47784
C         -0.76459       -0.84496       -0.29786
O         -1.02236       -1.96846        0.09407
N         -1.65053        0.18107       -0.49350
H         -1.29458        1.04400       -0.89813
C         -3.02910        0.19015       -0.26921
N         -3.60157       -0.86219        0.29424
C         -4.92222       -0.76342        0.47699
C         -5.66471        0.35345        0.11690
H         -6.73355        0.41868        0.27434
C         -4.93065        1.38498       -0.46135
N         -3.61419        1.32220       -0.66401
O         -5.60011        2.48641       -0.82683
C         -4.86363        3.56169       -1.42289
H         -4.11236        3.94219       -0.72797
H         -5.60604        4.33035       -1.63241
H         -4.38791        3.23290       -2.34894
O         -5.57586       -1.78914        1.03956
C         -4.81866       -2.94601        1.41906
H         -5.54904       -3.63550        1.84002
H         -4.06953       -2.68432        2.16894
H         -4.33639       -3.39157        0.54671
