56
id_705_ca.log	Energy: -572316.9051965
C         -0.08013        3.77972       -1.75699
H         -0.78946        4.53242       -1.40027
H         -0.28079        3.57564       -2.81180
H          0.93355        4.17675       -1.66303
C         -0.21083        2.51155       -0.94098
C         -1.61576        1.93389       -1.04967
H         -1.83068        1.62551       -2.07472
H         -2.36901        2.64801       -0.70479
N         -1.72616        0.72017       -0.17831
C         -1.37625        1.08685        1.23040
H         -2.12397        1.81093        1.56702
H         -1.41916        0.18873        1.84749
C          0.02619        1.67852        1.25211
O          0.08951        2.82647        0.41367
C          0.43447        2.08404        2.65131
H          1.43892        2.51486        2.63164
H          0.44172        1.20982        3.30834
H         -0.26135        2.82564        3.05514
C         -3.06458        0.04918       -0.32635
H         -3.79204        0.74476        0.10167
H         -3.24377       -0.02765       -1.40365
C         -3.18533       -1.33269        0.32145
C         -4.66192       -1.72816        0.25869
H         -5.00385       -1.77688       -0.78132
H         -5.28816       -1.00691        0.79195
H         -4.80986       -2.71289        0.71061
C         -2.32952       -2.41859       -0.36376
H         -2.65098       -2.51178       -1.40837
H         -2.55200       -3.37060        0.13213
C         -0.84458       -2.14692       -0.31070
C         -0.12532       -1.80004       -1.46140
H         -0.62406       -1.82186       -2.42775
C          1.20178       -1.38380       -1.37833
H          1.71868       -1.10095       -2.29179
C          1.86793       -1.30462       -0.14744
C          1.16246       -1.71143        0.99142
H          1.63719       -1.68665        1.96677
C         -0.16747       -2.12210        0.91166
H         -0.69600       -2.40177        1.82074
C          3.29860       -0.76482       -0.08935
C          3.34135        0.64133       -0.71195
H          4.36690        1.02671       -0.68554
H          2.70297        1.33995       -0.15691
H          3.01336        0.63298       -1.75640
C          4.22534       -1.69651       -0.88555
H          5.25350       -1.31867       -0.85634
H          3.91883       -1.76330       -1.93458
H          4.21868       -2.70677       -0.46218
C          3.81459       -0.66488        1.34820
H          3.18627       -0.00066        1.95396
H          4.82973       -0.25478        1.34160
H          3.85174       -1.64469        1.83592
H          0.50480        1.75058       -1.29484
H          0.72177        0.91910        0.86325
H         -2.89500       -1.26974        1.37687
H         -1.00752        0.05813       -0.50853
