12
id_797_cb.log	Energy: -769342.8113575
C          1.94839       -1.50413       -0.00000
H          2.71385       -2.27594       -0.00000
C          2.32256       -0.16989       -0.00000
H          3.37381        0.10699       -0.00000
C          1.37279        0.89335       -0.00000
C          0.00000        0.47686       -0.00000
C         -0.35435       -0.87132        0.00000
C          0.60305       -1.88192        0.00000
H          0.29971       -2.92267        0.00000
Cl        -2.04131       -1.34447        0.00000
Cl        -1.22694        1.71835        0.00000
O          1.72729        2.13475       -0.00000
