46
id_739_ca.log	Energy: -792252.6754007
C         -1.18707        3.11163        1.20292
H         -0.78024        4.12688        1.18700
H         -0.49809        2.46590        1.75702
H         -2.14908        3.12627        1.72296
C         -1.36937        2.61790       -0.22592
C         -0.07080        2.56135       -1.00769
H         -0.24882        2.23847       -2.03933
H          0.42174        3.53336       -1.00298
O          0.84429        1.65102       -0.38694
C          0.33867        0.40181       -0.18880
C         -1.05051        0.17563       -0.13249
N         -1.93179        1.25042       -0.22887
C         -3.24696        1.05468       -0.18572
H         -3.84733        1.95619       -0.24962
C         -3.83738       -0.19337       -0.06440
C         -3.00900       -1.37782        0.04053
O         -3.43916       -2.53986        0.15021
C         -1.55615       -1.12573        0.00668
C         -0.65905       -2.19059        0.13660
H         -1.01950       -3.20493        0.26921
C          0.69016       -1.93477        0.13949
C          1.25198       -0.65353       -0.03778
N          2.62236       -0.36943       -0.09676
C          3.56390       -1.41886       -0.49345
H          3.73372       -2.14111        0.31734
H          3.16103       -1.95347       -1.35738
C          4.88936       -0.77426       -0.86472
H          4.74517       -0.10700       -1.73472
H          5.59724       -1.55679       -1.15572
N          5.44784       -0.03055        0.26571
C          4.49473        1.00476        0.66727
H          4.89904        1.54365        1.52988
H          4.34975        1.73532       -0.15096
C          3.15048        0.40466        1.03646
H          3.25874       -0.25027        1.91627
H          2.45204        1.20394        1.29035
C          6.70431        0.59291       -0.13223
H          7.12490        1.15057        0.70939
H          7.42131       -0.17594       -0.43367
H          6.56711        1.29045       -0.97690
F          1.52320       -2.98100        0.33577
C         -5.30290       -0.27398       -0.03309
O         -5.96159       -1.29004        0.12525
O         -5.90446        0.92383       -0.19704
H         -6.86970        0.78920       -0.14648
H         -2.07574        3.25107       -0.76797
