16
id_76_ca.log	Energy: -430396.9080672
C         -2.59183       -1.10517        0.05410
H         -2.52195       -1.71285       -0.85294
H         -3.60817       -0.70690        0.11561
H         -2.39307       -1.73283        0.92477
C         -1.62794        0.04425       -0.06600
O         -1.75019        0.89886       -0.96140
N         -0.64008        0.10765        0.84453
H         -0.54424       -0.65692        1.50228
C          0.42227        1.09925        0.77796
H         -0.02682        2.08399        0.61516
H          0.92337        1.10770        1.74766
C          1.42769        0.82816       -0.33590
H          0.95061        0.88489       -1.31665
H          2.21483        1.58616       -0.29954
S          2.28166       -0.77808       -0.17763
H          1.19988       -1.54737       -0.39574
