19
id_75_cb.log	Energy: -158740.4596958
C         -2.68263       -0.47557       -0.06310
H         -3.24372        0.41949       -0.35307
H         -3.27327       -1.01588        0.68306
H         -2.59536       -1.11441       -0.94892
C         -1.30394       -0.10316        0.47310
H         -0.77889       -1.01417        0.78921
H         -1.40909        0.52156        1.37036
C         -0.46018        0.64021       -0.55973
H         -1.00997        1.52300       -0.91167
H         -0.31377       -0.00071       -1.43897
C          0.89060        1.10933       -0.01166
H          0.71525        1.87699        0.75076
H          1.46088        1.58665       -0.81767
N          1.74776        0.08329        0.59140
H          1.24907       -0.29666        1.39554
C          2.00352       -1.02409       -0.32690
H          1.10532       -1.57584       -0.63926
H          2.68824       -1.73672        0.14021
H          2.48677       -0.63669       -1.22969
