19
id_783_cb.log	Energy: -289053.1356192
C          3.20483        0.12190        0.13564
H          4.28080        0.23403        0.22699
C          2.63554       -1.14659       -0.01833
H          3.26872       -2.02901       -0.04613
C          1.25862       -1.29229       -0.13587
H          0.80488       -2.27211       -0.25535
C          0.42889       -0.16310       -0.10119
C          0.98627        1.10959        0.05368
H          0.36134        1.99468        0.08304
C          2.37391        1.23827        0.17008
H          2.80002        2.23067        0.28891
O         -0.90904       -0.40090       -0.22859
C         -1.80282        0.71633       -0.17607
H         -1.68124        1.22803        0.78846
H         -1.55862        1.41437       -0.98865
C         -3.22352        0.19263       -0.32083
H         -3.27411       -0.32053       -1.30445
H         -3.85509        1.09953       -0.42603
O         -3.63057       -0.62911        0.72742
