12
id_798_cb.log	Energy: -769341.6631093
C          1.39270       -1.74225        0.00000
H          1.92957       -2.68740        0.00000
C          0.00669       -1.74035        0.00000
H         -0.53817       -2.68065        0.00000
C         -0.71257       -0.54328        0.00000
C          0.00000        0.65685        0.00000
C          1.38753        0.67304        0.00000
H          1.91294        1.62375        0.00000
C          2.14692       -0.53240        0.00000
O          3.44634       -0.52144        0.00000
Cl        -0.84660        2.18983        0.00000
Cl        -2.45944       -0.58476        0.00000
