15
id_714_ca.log	Energy: -933013.4727003
C         -0.13581        0.00962       -0.41179
C         -1.35663       -0.89731       -0.05235
F         -1.35994       -1.99246       -0.80624
F         -2.50369       -0.24307       -0.27017
F         -1.33740       -1.26795        1.23150
C         -0.41449        1.45180        0.10063
F         -1.23989        2.07732       -0.74165
F         -0.98305        1.44101        1.30984
F          0.71027        2.16443        0.17439
C          1.13230       -0.57429        0.28268
F          1.09299       -1.91543        0.20842
F          1.11322       -0.24281        1.58463
Cl         2.64624       -0.02933       -0.42718
O          0.10990        0.00318       -1.77342
H         -0.65001        0.34481       -2.28190
