45
id_70_cb.log	Energy: -1104130.6704819
C          6.96530        3.45281       -0.08911
H          6.53587        4.05098        0.71994
H          8.05410        3.45999        0.01587
H          6.70691        3.91414       -1.04678
C          6.46853        2.02729       -0.02627
H          6.88048        1.41910       -0.83576
H          6.71098        1.55647        0.92984
O          5.03419        2.07790       -0.16843
C          4.34545        0.93365       -0.14091
N          4.99672       -0.21016        0.01875
C          4.19235       -1.29312        0.03211
N          2.84769       -1.26819       -0.09961
C          2.33812       -0.05547       -0.25517
N          3.03309        1.09801       -0.28469
N          0.98391        0.12912       -0.40509
H          0.70727        1.09922       -0.51106
C         -0.06672       -0.79544       -0.44380
O          0.11644       -2.01396       -0.32931
N         -1.24632       -0.14470       -0.61747
S         -2.55303       -1.08048       -0.65189
O         -2.62388       -1.92974       -1.86320
O         -2.81552       -1.80456        0.61485
C         -3.85495        0.13940       -0.81110
C         -4.26778        0.48471       -2.09413
H         -3.77544        0.04578       -2.95622
C         -5.32451        1.37831       -2.26157
H         -5.64247        1.65153       -3.26267
C         -5.97842        1.90118       -1.14826
H         -6.80979        2.58737       -1.27495
C         -5.57139        1.54055        0.13482
H         -6.07907        1.94139        1.00743
C         -4.49568        0.67003        0.31376
C         -4.09852        0.35612        1.72451
O         -4.85536       -0.13819        2.53847
O         -2.86137        0.74762        2.00111
C         -2.37115        0.41920        3.31189
H         -2.41312       -0.66211        3.45947
H         -1.34103        0.76957        3.33160
H         -2.96557        0.92931        4.07215
N          4.76379       -2.49215        0.18841
H          4.14662       -3.29434        0.19163
C          6.19350       -2.69314        0.33782
H          6.57387       -2.17674        1.22307
H          6.36942       -3.76248        0.44956
H          6.73669       -2.33412       -0.54048
