12
id_795_cb.log	Energy: -503836.1378190
C          0.00003        1.50331        0.00000
C         -1.18369        0.72136       -0.00001
C         -1.19049       -0.66163        0.00001
C         -0.00002       -1.37358        0.00001
C          1.19046       -0.66168        0.00001
C          1.18371        0.72132       -0.00001
F          2.37301        1.36146       -0.00000
F          2.35743       -1.32621        0.00000
F         -0.00006       -2.71931       -0.00000
F         -2.35747       -1.32614        0.00000
F         -2.37295        1.36156       -0.00000
O          0.00004        2.79290        0.00001
