36
id_728_cb.log	Energy: -881235.9515929
C          1.82855       -2.05433       -1.25739
H          2.05265       -1.70627       -2.27108
H          2.38428       -2.98508       -1.09789
C          0.33046       -2.34317       -1.13744
H          0.09551       -2.87294       -0.21022
H          0.03506       -2.99441       -1.96830
C         -0.49212       -1.07735       -1.23433
O         -0.19391       -0.16001       -2.01882
N         -1.54471       -0.96827       -0.40723
H         -1.84577       -1.75776        0.15913
C         -2.34259        0.23941       -0.35052
C         -3.43233        0.10680        0.72540
H         -3.99521        1.04616        0.72009
H         -2.93528        0.03256        1.70064
S         -4.54051       -1.32654        0.46742
C         -1.45317        1.43753       -0.03415
O         -1.68389        2.55757       -0.53097
N         -0.45189        1.23686        0.83375
H         -0.19889        0.28084        1.09026
C          0.48152        2.28093        1.21563
H          1.02289        1.95568        2.10294
H         -0.06430        3.20249        1.44506
C          1.49521        2.58085        0.11982
O          2.69737        2.50602        0.28036
O          0.99863        2.94655       -1.06513
H          0.01226        2.99924       -1.03498
C          2.37282       -0.97861       -0.30044
C          2.07097       -1.36359        1.13959
O          0.98588       -1.20261        1.67417
O          3.07594       -1.93622        1.79504
H          3.85730       -1.89279        1.18583
N          3.82252       -0.86687       -0.45704
H          4.08274       -1.04303       -1.42594
H          4.12261        0.08227       -0.23700
H         -2.80365        0.44114       -1.32352
H          1.84830       -0.03671       -0.49439
