38
id_706_cb.log	Energy: -1160401.3941073
C         -4.55694       -3.37729       -0.32972
H         -5.20859       -4.24794       -0.38979
H         -3.87404       -3.47289        0.51684
H         -3.99023       -3.26375       -1.25609
O         -5.43986       -2.26418       -0.14059
C         -4.89776       -1.04242       -0.02497
C         -5.78241        0.02178        0.16499
H         -6.84948       -0.14353        0.21493
C         -5.17109        1.26319        0.28013
N         -3.84713        1.43606        0.21633
C         -3.11761        0.33407        0.03168
N         -3.57855       -0.91339       -0.09474
N         -1.75796        0.57374       -0.02157
H         -1.50450        1.54832        0.09868
C         -0.68360       -0.29689       -0.21910
O         -0.83384       -1.51258       -0.40264
N          0.48521        0.39577       -0.17665
S          1.80593       -0.48146       -0.37116
O          2.05210       -1.41263        0.74866
O          1.94178       -1.08073       -1.71945
C          3.10272        0.79644       -0.27944
C          4.40555        0.51589        0.16085
C          5.31352        1.57538        0.18311
H          6.32932        1.41182        0.52557
C          4.91432        2.83398       -0.24408
H          5.60081        3.67296       -0.23336
C          3.61582        2.98560       -0.71114
H          3.26456        3.94087       -1.08843
N          2.72965        1.98493       -0.72501
C          4.92050       -0.84571        0.57359
F          4.53449       -1.81847       -0.26606
F          6.26799       -0.86254        0.56872
F          4.55384       -1.19984        1.81562
O         -5.84335        2.41247        0.46630
C         -7.26936        2.34561        0.54423
H         -7.60180        3.37212        0.69013
H         -7.57777        1.72941        1.39343
H         -7.68505        1.94735       -0.38546
