45
id_774_ca.log	Energy: -721427.2077189
C         -1.12607        3.40448        0.91007
H         -0.32683        2.85073        1.41062
H         -2.00488        3.41271        1.56104
H         -0.79167        4.43494        0.76426
C         -1.47795        2.79689       -0.43833
H         -0.63657        2.81691       -1.13262
H         -2.29130        3.35076       -0.90747
N         -1.94260        1.40044       -0.31328
C         -3.25878        1.16008       -0.29372
H         -3.88616        2.03305       -0.43336
C         -3.82699       -0.08428       -0.11534
C         -2.97878       -1.24595        0.06488
O         -3.38207       -2.40854        0.21127
C         -1.53648       -0.94679        0.06248
C         -1.03854        0.35336       -0.11152
C          0.34854        0.58896       -0.09905
H          0.72994        1.58891       -0.25031
C          1.24743       -0.45043        0.10322
C          0.71322       -1.74662        0.28835
C         -0.62799       -1.99980        0.25841
H         -0.99450       -3.00844        0.41257
F          1.56738       -2.75847        0.52728
N          2.63838       -0.26881        0.19098
C          3.09384        1.11682        0.26271
H          2.93484        1.64728       -0.69008
H          2.54193        1.64438        1.04427
C          4.56428        1.16358        0.63016
H          4.75388        0.69033        1.59633
H          4.92772        2.19181        0.64259
N          5.37918        0.41012       -0.37537
C          4.87900       -0.99596       -0.49360
H          5.46010       -1.48663       -1.27557
H          5.07125       -1.47425        0.46982
C          3.40357       -0.99677       -0.83409
H          3.07257       -2.03254       -0.88715
H          3.24902       -0.53534       -1.82180
C          6.82963        0.45102       -0.04607
H          6.97015       -0.03750        0.91851
H          7.14291        1.49336        0.00254
H          7.37568       -0.07751       -0.82685
C         -5.29220       -0.20304       -0.11287
O         -5.92333       -1.22547        0.08529
O         -5.91869        0.96827       -0.35495
H         -6.87863        0.79754       -0.31765
H          5.24780        0.86612       -1.28853
