20
id_783_ca.log	Energy: -289360.8705550
C         -3.22888        0.08488       -0.16768
H         -4.30444        0.17147       -0.28689
C         -2.63790       -1.16705        0.03115
H         -3.25320       -2.06160        0.06679
C         -1.26111       -1.28060        0.18260
H         -0.78902       -2.24681        0.33642
C         -0.45836       -0.13435        0.13667
C         -1.03495        1.12239       -0.05981
H         -0.42797        2.01995       -0.09487
C         -2.42191        1.21833       -0.21055
H         -2.86623        2.19795       -0.36290
O          0.88473       -0.34005        0.29908
C          1.75435        0.78610        0.19475
H          1.61912        1.26833       -0.78108
H          1.53800        1.50735        0.99211
C          3.16430        0.26250        0.33423
H          3.28330       -0.24048        1.30168
H          3.86203        1.10174        0.28814
O          3.50995       -0.61946       -0.72814
H          2.92777       -1.39502       -0.67502
