11
id_735_cb.log	Energy: -225902.7150768
C         -2.46211       -0.35938       -0.00000
H         -2.91296        0.09940       -0.88580
H         -2.91293        0.09920        0.88592
H         -2.69077       -1.42680       -0.00012
C         -0.98947       -0.15706       -0.00001
C          0.07142       -0.99278       -0.00005
H          0.06354       -2.07372       -0.00010
C          1.24094       -0.12913       -0.00001
N          0.85580        1.15123        0.00005
O         -0.56290        1.12891        0.00005
O          2.47514       -0.49473       -0.00003
