50
id_722_ca.log	Energy: -817167.7467365
C         -5.95193       -1.51333        1.14549
H         -6.95939       -1.57274        0.72360
H         -5.98615       -0.92436        2.06821
H         -5.61988       -2.52562        1.39065
C         -4.98768       -0.89953        0.15060
C         -3.57971       -0.75849        0.70749
H         -3.19876       -1.75455        0.93610
H         -3.62132       -0.18562        1.64961
N         -2.70481       -0.08720       -0.25614
C         -3.16324        1.26232       -0.56570
H         -2.49673        1.72120       -1.29746
H         -3.19606        1.90345        0.32840
C         -4.55186        1.18038       -1.17393
H         -4.55515        0.60620       -2.10173
H         -4.96144        2.17562       -1.35030
N         -5.47154        0.47648       -0.22473
H         -6.40954        0.40701       -0.63695
H         -5.56858        1.03761        0.63369
C         -1.34187       -0.39170       -0.21380
C         -0.93850       -1.71456       -0.49697
C          0.36407       -2.12083       -0.48266
H          0.61962       -3.15565       -0.68230
C          1.37518       -1.17764       -0.23937
C          1.03675        0.16861       -0.01195
C         -0.33133        0.53365        0.07682
O         -0.69151        1.78250        0.50053
C         -0.97460        1.83308        1.90467
H         -0.08878        1.54299        2.48059
H         -1.24181        2.86743        2.12503
H         -1.81000        1.16945        2.15424
N          2.07098        1.09997        0.16955
C          3.33655        0.67348        0.26970
H          4.06427        1.45515        0.44991
C          3.74301       -0.63868        0.13708
C          2.76999       -1.65464       -0.19440
O          3.03451       -2.84941       -0.41434
C          5.17034       -0.95351        0.28483
O          5.67383       -2.05699        0.14927
O          5.92275        0.12059        0.60283
C          1.84366        2.54422        0.12583
H          1.48360        2.95617        1.06162
C          1.34744        3.14353       -1.14615
H          0.62233        3.94549       -1.05930
H          1.19751        2.46556       -1.98157
C          2.76733        3.37934       -0.70725
H          3.54957        2.87972       -1.26992
H          3.03681        4.34956       -0.30425
F         -1.90300       -2.61094       -0.79636
H         -4.96441       -1.46664       -0.78392
H          6.85051       -0.17145        0.68428
