15
id_718_ca.log	Energy: -203950.0935452
C          2.06396        0.45799       -0.26526
H          3.02891        0.86570       -0.52886
C          0.84022        1.17765       -0.06299
H          0.67800        2.24342       -0.14128
C         -0.09804        0.25063        0.25689
O          0.45622       -0.99938        0.26410
C          1.77097       -0.85000       -0.05905
H          2.35135       -1.75952       -0.09675
C         -1.54029        0.33911        0.57708
H         -1.83793        1.37908        0.69951
H         -1.79641       -0.22727        1.47337
N         -2.36910       -0.23369       -0.53864
H         -2.13295       -1.22012       -0.69968
H         -2.20816        0.27791       -1.41411
H         -3.36987       -0.18062       -0.31463
