44
id_707_ca.log	Energy: -845662.3427008
C          6.76937        0.70602       -0.34289
H          6.60928        1.22110       -1.30608
H          7.51481       -0.08013       -0.49220
H          7.16630        1.43093        0.37340
N          5.53484        0.12596        0.17277
C          5.00732       -0.83841       -0.79341
H          4.84395       -0.35420       -1.77405
H          5.74252       -1.63728       -0.93205
C          3.70280       -1.44863       -0.30756
H          3.88729       -2.00376        0.62280
H          3.32400       -2.14299       -1.06110
N          2.72459       -0.37571       -0.10786
C          3.22316        0.61868        0.85621
H          2.49812        1.42674        0.96428
H          3.35502        0.14239        1.84050
C          4.54475        1.18472        0.37137
H          4.92644        1.89308        1.11318
H          4.37544        1.73870       -0.57114
C          1.36817       -0.68546       -0.01690
C          0.82439       -1.94044        0.32393
C         -0.52236       -2.19028        0.33991
H         -0.88565       -3.17704        0.60601
C         -1.43155       -1.16608        0.05320
C         -0.96084        0.12333       -0.26726
C          0.43015        0.30543       -0.32115
F          0.93656        1.49120       -0.71208
N         -1.88591        1.14107       -0.54116
C         -3.19635        0.86593       -0.49391
H         -3.84392        1.70949       -0.70172
C         -3.74243       -0.36970       -0.21219
C         -2.87284       -1.48075        0.10174
O         -3.25407       -2.62619        0.39280
C         -5.20573       -0.51040       -0.22040
O         -5.82328       -1.53847        0.00495
O         -5.84954        0.63897       -0.51036
H         -6.80980        0.46465       -0.48977
C         -1.50351        2.56163       -0.69702
H         -0.73237        2.66822       -1.45629
H         -2.39398        3.08321       -1.04886
C         -1.06214        3.16863        0.61418
H         -0.77058        4.20975        0.46058
H         -0.25331        2.61809        1.09951
F         -2.15232        3.15213        1.49568
F          1.66162       -2.93999        0.66760
