44
id_708_cb.log	Energy: -845627.7639358
C         -6.93890        0.22234       -0.16123
H         -7.07829       -0.61705       -0.86424
H         -7.34890        1.12560       -0.62167
H         -7.50974        0.00626        0.74625
N         -5.53688        0.43031        0.17431
C         -4.78158        0.70890       -1.04659
H         -4.89247       -0.11531       -1.77468
H         -5.17866        1.61827       -1.50834
C         -3.30707        0.91542       -0.74048
H         -3.19575        1.79079       -0.08717
H         -2.76254        1.10171       -1.66877
N         -2.78170       -0.29885       -0.11310
C         -3.52583       -0.62770        1.11151
H         -3.14468       -1.55767        1.53358
H         -3.38969        0.17023        1.85719
C         -5.00037       -0.78411        0.78711
H         -5.55129       -0.99062        1.70991
H         -5.12806       -1.65299        0.11533
C         -1.40719       -0.53154       -0.07576
C         -0.94201       -1.85930        0.06104
C          0.38243       -2.18775        0.08528
H          0.68935       -3.22062        0.20059
C          1.35186       -1.18751       -0.07594
C          0.95906        0.15139       -0.25226
C         -0.42035        0.44202       -0.20386
F         -0.82512        1.72626       -0.24591
N          1.94486        1.12844       -0.44274
C          3.23901        0.78300       -0.36775
H          3.93448        1.60414       -0.48828
C          3.70707       -0.49608       -0.17507
C          2.77158       -1.59143       -0.03701
O          3.08427       -2.77969        0.11014
C          5.15894       -0.72387       -0.12831
O          5.70091       -1.79405        0.07550
O          5.87657        0.39936       -0.33802
H          6.82043        0.15891       -0.28154
C          1.65640        2.56695       -0.61861
H          2.52418        2.99618       -1.12022
H          0.79631        2.70141       -1.26757
C          1.46512        3.24737        0.71731
H          0.65848        2.79441        1.29783
H          1.26495        4.31151        0.56903
F          2.64554        3.10912        1.43915
F         -1.86432       -2.82848        0.16967
