19
id_785_cb.log	Energy: -323026.3734116
C         -3.99250       -0.22186        0.06308
H         -4.40796        0.27218        0.94717
H         -4.30858       -1.26837        0.06963
H         -4.43433        0.25954       -0.81685
C         -2.49121       -0.10692        0.03506
C         -1.68187       -1.21785       -0.22049
H         -2.14425       -2.18625       -0.39623
C         -0.29266       -1.10295       -0.26870
H          0.30293       -1.98291       -0.49803
C          0.32133        0.13544       -0.05608
C         -0.48369        1.25395        0.19162
H         -0.01570        2.22141        0.35035
C         -1.86786        1.13095        0.24262
H         -2.47835        2.00823        0.44547
C          1.80496        0.32772       -0.11284
O          2.30389        1.41936       -0.50938
N          2.54726       -0.69346        0.28414
H          2.10569       -1.53447        0.64505
O          3.90245       -0.68512        0.26173
