32
id_716_ca.log	Energy: -1586010.1230325
C         -3.15595        0.98577       -0.60381
H         -3.94458        1.04852       -1.34391
C         -2.22182        2.00326       -0.46738
H         -2.26961        2.88068       -1.10255
C         -1.20021        1.91174        0.48006
C         -1.14549        0.79105        1.32642
C         -2.07474       -0.23244        1.21659
H         -2.02382       -1.10493        1.85786
C         -3.05376       -0.11243        0.23948
N         -4.02079       -1.20573        0.09708
O         -4.90295       -1.08608       -0.73760
O         -3.89486       -2.18381        0.81663
Cl         0.12440        0.63616        2.50247
N         -0.20736        2.92967        0.50990
H          0.24469        3.05887        1.41880
S          0.97324        2.84815       -0.69232
O          1.94831        3.87236       -0.34379
O          0.27463        2.88827       -1.96939
C          1.70118        1.24256       -0.49805
C          2.88102        1.10683        0.22521
H          3.43300        1.97944        0.56057
C          3.33957       -0.17093        0.52533
H          4.26177       -0.30631        1.07979
C          2.59239       -1.27964        0.13826
C          1.40681       -1.13262       -0.59242
C          0.96805        0.14131       -0.93275
H          0.05477        0.26650       -1.50701
C          0.55858       -2.32064       -0.96914
F         -0.53178       -1.95487       -1.65826
F          1.22353       -3.20695       -1.72946
F          0.12580       -2.98288        0.11959
Cl         3.16596       -2.85306        0.59308
