48
id_723_ca.log	Energy: -860897.1440386
C          5.29776        3.31451       -0.67576
H          4.79542        4.28072       -0.61268
H          5.71057        3.17257       -1.67898
H          6.09500        3.25791        0.07145
O          4.29306        2.34184       -0.40664
N          4.85418        1.06415       -0.46141
C          3.96526        0.17172       -0.26017
C          2.50178        0.41485       -0.03689
H          2.08065        1.04304       -0.83233
H          2.31297        0.91896        0.91777
N          1.93308       -0.93534       -0.06096
C          2.91829       -1.93955       -0.51234
H          2.79424       -2.87520        0.03312
H          2.80172       -2.13272       -1.58457
C          4.27536       -1.29595       -0.20511
C          4.77621       -1.69468        1.20075
H          4.85753       -2.78532        1.22429
H          4.02481       -1.41031        1.94557
N          6.05933       -1.12556        1.59321
H          6.00244       -0.10825        1.55225
H          6.76183       -1.39050        0.90271
C          0.58831       -1.07089       -0.10467
C         -0.08071       -2.30963       -0.35634
C         -1.43645       -2.38192       -0.37825
H         -1.92678       -3.33103       -0.57204
C         -2.19622       -1.21460       -0.14777
C         -3.65599       -1.25350       -0.14515
O         -4.26964       -2.31683       -0.35920
C         -4.28346        0.02650        0.13421
C         -3.50300        1.14259        0.35646
H         -3.95852        2.10084        0.57560
N         -2.16244        1.14841        0.32152
C         -1.47044       -0.04224        0.08928
N         -0.13972        0.02842        0.11635
C         -1.41995        2.36920        0.59458
H         -0.96977        2.37410        1.58173
C         -0.67381        3.02900       -0.51843
H          0.29362        3.45640       -0.27661
H         -0.75193        2.56985       -1.49892
C         -1.92104        3.66311        0.03521
H         -2.80478        3.64110       -0.59475
H         -1.83039        4.53503        0.67350
C         -5.74519        0.17046        0.18552
O         -6.55515       -0.71551       -0.03407
O         -6.14786        1.41758        0.50818
H         -7.12366        1.43019        0.51646
F          0.64559       -3.42681       -0.57292
H          5.03011       -1.57722       -0.94503
