12
id_786_ca.log	Energy: -215483.3116828
C          2.42627        0.16009       -0.08553
H          3.33003       -0.45304       -0.05063
H          2.40225        0.68309       -1.04566
H          2.48499        0.90454        0.71283
C          1.20200       -0.72907        0.08280
H          1.21581       -1.25052        1.04703
H          1.14850       -1.50028       -0.69209
C         -0.07013        0.06087        0.03559
O         -0.20096        1.26621        0.05719
O         -1.15364       -0.75652       -0.03000
O         -2.37651       -0.03928       -0.04467
H         -2.08162        0.90151       -0.02877
