13
id_796_ca.log	Energy: -1058013.4059946
C          1.69018        0.90476       -0.00000
H          2.76779        1.03622       -0.00001
C          0.84366        2.01118        0.00000
C         -0.54023        1.84475        0.00000
H         -1.19199        2.71188        0.00000
C         -1.06726        0.56146        0.00000
C         -0.24439       -0.57122        0.00000
C          1.13907       -0.37017        0.00000
Cl         2.22225       -1.72809       -0.00000
Cl        -0.91629       -2.16530        0.00000
Cl        -2.79556        0.38580       -0.00000
O          1.31645        3.28798       -0.00001
H          2.28966        3.29246        0.00008
