41
id_766_ca.log	Energy: -696507.8724312
C          0.81908        3.40068       -0.94245
H          0.01179        2.85932       -1.44416
H          1.70208        3.38982       -1.58871
H          0.50271        4.43864       -0.80484
C          1.15284        2.79856        0.41335
H          0.30860        2.83854        1.10329
H          1.97459        3.34129        0.88110
N          1.59534        1.39228        0.30077
C          2.90501        1.13307        0.29192
H          3.54554        1.99684        0.43107
C          3.45650       -0.12461        0.12186
C          2.58952       -1.26931       -0.05765
O          2.97933       -2.44475       -0.19436
C          1.15488       -0.95179       -0.06646
C          0.67541        0.35763        0.10122
C         -0.70712        0.61715        0.08679
H         -1.07043        1.62433        0.23370
C         -1.63196       -0.40431       -0.11352
C         -1.10987       -1.70847       -0.29966
C          0.22564       -1.98825       -0.26929
H          0.57022       -3.00475       -0.42860
F         -1.97444       -2.71289       -0.56775
N         -3.01255       -0.19189       -0.19284
C         -3.44346        1.20751       -0.25189
H         -3.24294        1.71683        0.70700
H         -2.88180        1.72163       -1.03770
C         -4.93397        1.28276       -0.55895
H         -5.23871        2.33244       -0.57123
H         -5.11843        0.86948       -1.55711
N         -5.77134        0.55206        0.39700
H         -5.65445        0.99648        1.30982
C         -5.28500       -0.82607        0.51436
H         -5.84479       -1.33680        1.30231
H         -5.49050       -1.34191       -0.43079
C         -3.79870       -0.91997        0.82538
H         -3.49149       -1.96551        0.85545
H         -3.59957       -0.47465        1.81507
C          4.91856       -0.25884        0.12871
O          5.54222       -1.29035       -0.06764
O          5.56115        0.90276        0.37575
H          6.52158        0.73102        0.34725
