12
id_7_cb.log	Energy: -683618.8995869
C         -0.09247       -2.06796        0.00000
H         -0.13924       -3.15401        0.00000
C         -1.27186       -1.32978        0.00000
H         -2.22705       -1.84784        0.00000
C         -1.26652        0.08416        0.00000
C          0.00000        0.71138       -0.00000
H          0.06354        1.79553       -0.00000
C          1.16266       -0.04821       -0.00000
C          1.15562       -1.43943       -0.00000
H          2.08044       -2.00622       -0.00000
Cl         2.71240        0.78835       -0.00000
S         -2.75081        1.02186        0.00000
