15
id_770_cb.log	Energy: -419891.2310977
C          0.81315        2.12182        0.00000
H          1.47170        2.12135        0.87655
H          0.23083        3.04846        0.00001
H          1.47168        2.12137       -0.87656
C         -0.09231        0.92046        0.00000
C         -1.47956        1.10530       -0.00000
H         -1.86721        2.12282       -0.00000
C         -2.37168        0.03178       -0.00000
H         -3.44395        0.20646       -0.00001
C         -1.85596       -1.26544        0.00000
H         -2.52503       -2.12287        0.00000
C         -0.47787       -1.46679        0.00001
H         -0.08674       -2.48160        0.00001
C          0.44442       -0.39668        0.00000
S          2.17923       -0.70742       -0.00000
