12
id_794_cb.log	Energy: -1634488.8799738
C          0.00001       -1.71280        0.00000
C         -1.20284       -0.93254        0.00000
C         -1.20287        0.45765        0.00000
C         -0.00000        1.17408        0.00000
C          1.20286        0.45765        0.00000
C          1.20283       -0.93255        0.00000
Cl         2.70000       -1.81305        0.00000
Cl         2.70711        1.32384        0.00000
Cl        -0.00000        2.90873        0.00000
Cl        -2.70711        1.32386        0.00000
Cl        -2.69999       -1.81307        0.00000
O         -0.00001       -2.98551        0.00000
