44
id_71_cb.log	Energy: -1303351.3848460
C          5.30500        3.39945       -1.07043
H          4.72107        3.63056       -0.17697
H          6.04599        4.17802       -1.24669
H          4.64535        3.30410       -1.93531
O          6.06370        2.19967       -0.87984
C          5.39700        1.06028       -0.63364
C          6.15531       -0.09150       -0.44256
H          7.23677       -0.09125       -0.48436
C          5.41334       -1.23928       -0.19447
N          4.08015       -1.26522       -0.14188
C          3.47641       -0.09553       -0.33118
N          4.06795        1.08192       -0.57999
N          2.09655       -0.01723       -0.30295
H          1.72595        0.90270       -0.51879
C          1.14675       -0.95400        0.10084
O          1.44478       -2.07712        0.52488
N         -0.10307       -0.43420       -0.04862
S         -1.31902       -1.32733        0.47728
O         -1.64251       -2.47982       -0.38480
O         -1.27573       -1.64160        1.92328
C         -2.64702       -0.11309        0.26570
C         -2.45944        1.24088        0.56787
C         -3.53115        2.10118        0.35464
H         -3.42561        3.16232        0.55968
C         -4.74042        1.58668       -0.10851
H         -5.59491        2.23149       -0.27729
C         -4.80566        0.22317       -0.34351
N         -3.78318       -0.61653       -0.17470
C         -6.07105       -0.43701       -0.84029
F         -6.47935       -1.40737       -0.00623
F         -7.07944        0.43664       -0.96275
F         -5.88842       -1.00910       -2.04230
C         -1.19494        1.79163        1.16247
O         -0.80936        1.51589        2.27984
O         -0.61541        2.67362        0.36002
C          0.56857        3.31103        0.87728
H          0.94282        3.92861        0.06334
H          1.30459        2.55703        1.16200
H          0.30588        3.92556        1.74048
O          6.09130       -2.38271       -0.00259
C          5.34195       -3.57482        0.26280
H          4.68983       -3.81449       -0.57951
H          4.75016       -3.46211        1.17349
H          6.09025       -4.35548        0.39358
