45
id_790_ca.log	Energy: -1342744.5038724
C          5.34832       -2.69143        1.59201
H          6.41111       -2.64626        1.34124
H          4.84273       -3.37777        0.90834
H          5.25181       -3.08436        2.60713
C          4.70632       -1.31075        1.56308
H          5.19905       -0.60007        2.23351
H          3.63601       -1.34175        1.77569
S          4.87752       -0.59712       -0.06938
O          4.21966       -1.43314       -1.08265
O          6.29350       -0.25977       -0.27902
C          3.99540        0.97017       -0.01331
C          4.75992        2.11683        0.19496
H          5.82817        2.02851        0.36720
C          4.14280        3.36119        0.15767
H          4.71121        4.27046        0.31548
C          2.77920        3.41921       -0.10187
H          2.25468        4.36680       -0.16045
N          2.03688        2.32154       -0.28985
C          2.62601        1.14144       -0.22965
S          1.47001       -0.24065       -0.49858
O          1.75816       -1.31956        0.43632
O          1.40399       -0.54066       -1.92425
N          0.06498        0.52428        0.00866
H          0.08541        1.54191       -0.10781
C         -1.13837       -0.18285       -0.12392
O         -1.14385       -1.38192       -0.34354
N         -2.22471        0.62986        0.05357
H         -2.05300        1.62027        0.20611
C         -3.58015        0.29079        0.07689
N         -4.37664        1.33914        0.23997
C         -5.68915        1.07273        0.27778
C         -6.20245       -0.21102        0.15414
H         -7.25623       -0.45131        0.18186
C         -5.24264       -1.21208       -0.01225
N         -3.93215       -0.98455       -0.05229
O         -5.68951       -2.46699       -0.13534
C         -4.72442       -3.51339       -0.31124
H         -4.14838       -3.35164       -1.22443
H         -5.31097       -4.42742       -0.39056
H         -4.05591       -3.56515        0.55033
O         -6.44243        2.16923        0.44505
C         -7.86263        2.00317        0.49353
H         -8.14353        1.36684        1.33717
H         -8.22890        1.57746       -0.44461
H         -8.26755        3.00431        0.63119
