13
id_765_ca.log	Energy: -405735.9393634
C         -2.75322       -0.13325       -0.40752
H         -3.18396        0.50643        0.36731
H         -3.41866       -0.97620       -0.58806
H         -2.65018        0.44833       -1.32742
N         -1.46243       -0.65065        0.01596
H         -1.33133       -1.65171        0.09621
C         -0.44497        0.16447        0.30955
O         -0.54166        1.40139        0.23387
C          0.84845       -0.48703        0.74688
H          0.76756       -1.57523        0.78576
H          1.10672       -0.11921        1.74270
S          2.20095       -0.11099       -0.41906
H          2.16335        1.22167       -0.24780
