43
id_787_cb.log	Energy: -1162557.9625322
C          4.84929       -1.93702        1.87302
H          5.26532       -1.21398        2.58166
H          5.67983       -2.53923        1.49127
H          4.13659       -2.58254        2.38618
C          4.19678       -1.21145        0.74214
N          2.90336       -1.43264        0.51597
C          2.38327       -0.74532       -0.51171
N          3.06118        0.10915       -1.28805
C          4.34234        0.24138       -0.96073
N          4.97367       -0.38020        0.03096
O          5.01206        1.09267       -1.73798
C          6.40621        1.30052       -1.47328
H          6.54703        1.70915       -0.47114
H          6.73056        2.01946       -2.22392
H          6.95773        0.36491       -1.58153
N          1.06349       -0.87907       -0.84494
H          0.73454       -0.18428       -1.50883
C          0.03685       -1.58777       -0.18671
O          0.27940       -2.52360        0.58345
N         -1.16103       -1.09532       -0.57373
S         -2.49079       -1.71875        0.07835
O         -2.94509       -2.94412       -0.61816
O         -2.43721       -1.85686        1.55427
C         -3.66901       -0.42174       -0.29034
C         -4.78950       -0.77436       -1.03967
H         -4.89867       -1.79321       -1.39624
C         -5.75865        0.18462       -1.32628
H         -6.63237       -0.08758       -1.90997
C         -5.59600        1.48608       -0.85737
H         -6.34572        2.24187       -1.07171
C         -4.47187        1.82217       -0.10490
H         -4.35268        2.83834        0.26433
C         -3.48241        0.88196        0.19935
C         -2.27909        1.33589        0.99692
H         -2.61940        2.04118        1.76188
H         -1.80593        0.49800        1.51132
C         -1.25676        2.03291        0.08949
H         -1.64717        2.98295       -0.28805
H         -0.99413        1.39481       -0.75858
C          0.01768        2.33195        0.82279
F         -0.17418        3.12397        1.90126
F          0.91666        2.96622        0.04026
F          0.63135        1.21792        1.27952
