12
id_799_cb.log	Energy: -3419485.8727539
C         -1.71525       -1.17739       -0.00000
H         -2.76461       -1.45800       -0.00000
C         -0.73430       -2.15720       -0.00000
H         -1.02574       -3.20501       -0.00000
C          0.66588       -1.87354        0.00000
C          0.96774       -0.47592        0.00000
C         -0.00000        0.52024       -0.00000
H          0.29596        1.56436       -0.00000
C         -1.34296        0.16509       -0.00000
Br        -2.66792        1.52065       -0.00000
Br         2.78249        0.06665        0.00000
O          1.55469       -2.80803        0.00000
