11
id_752_cb.log	Energy: -417901.7932957
C         -2.43394       -0.66311       -0.22122
H         -3.06298        0.17551        0.08468
H         -2.88105       -1.60529        0.09191
H         -2.29388       -0.65011       -1.30449
O         -1.16378       -0.60037        0.44039
C         -0.41066        0.48309        0.18823
O         -0.81439        1.39784       -0.51808
C          0.94076        0.41336        0.81784
H          0.87414       -0.13104        1.76295
H          1.27028        1.43604        1.01535
S          2.08387       -0.43781       -0.35863
