18
id_78_ca.log	Energy: -171219.1076261
C         -0.47943       -0.88253        1.25397
H         -1.43267       -1.42344        1.28173
H         -0.40919       -0.27167        2.16243
H          0.32756       -1.62257        1.27633
C         -0.40297       -0.00696       -0.00000
C         -1.56567        0.98951        0.00007
H         -2.52311        0.45614        0.00003
H         -1.53626        1.63228       -0.88807
H         -1.53626        1.63215        0.88830
C         -0.47942       -0.88234       -1.25411
H         -1.43266       -1.42324       -1.28196
H          0.32756       -1.62238       -1.27657
H         -0.40917       -0.27135       -2.16248
C          0.89172        0.80359        0.00006
H          0.92212        1.44618        0.89108
H          0.92213        1.44631       -0.89086
O          2.02122       -0.07204        0.00001
H          2.82482        0.47023       -0.00006
