12
id_796_cb.log	Energy: -1057724.5716378
C          1.20850       -1.53038       -0.00000
H          2.15750       -2.05767       -0.00000
C          0.00001       -2.28590       -0.00000
C         -1.20848       -1.53037        0.00000
H         -2.15748       -2.05767        0.00000
C         -1.19139       -0.14699        0.00000
C         -0.00000        0.58984        0.00000
C          1.19139       -0.14700       -0.00000
Cl         2.72616        0.69143       -0.00000
Cl         0.00000        2.32615       -0.00000
Cl        -2.72616        0.69144        0.00000
O         -0.00002       -3.57916        0.00000
