40
id_737_cb.log	Energy: -1051467.5718987
C          6.30419       -2.14866        2.99867
H          7.05116       -1.47039        3.42380
H          6.80469       -3.09757        2.78376
H          5.50811       -2.31054        3.72553
C          5.76442       -1.56488        1.73436
N          4.46602       -1.27108        1.68037
C          4.04541       -0.74176        0.51696
N          4.82025       -0.50587       -0.54258
C          6.09188       -0.84289       -0.36303
N          6.63326       -1.37051        0.73496
O          6.95582       -0.65209       -1.35895
C          6.46484       -0.08966       -2.58363
H          6.05432        0.90620       -2.40719
H          5.70431       -0.73828       -3.02207
H          7.33511       -0.03139       -3.23541
N          2.70988       -0.44949        0.48643
H          2.21104       -0.67946        1.33978
C          1.92481        0.11271       -0.53392
O          2.40415        0.46223       -1.61821
N          0.63390        0.19462       -0.12661
S         -0.37999        0.84340       -1.19250
O         -0.58637       -0.00703       -2.38524
O         -0.11282        2.26731       -1.49474
C         -1.92070        0.80489       -0.27612
C         -2.72391       -0.32076       -0.42889
H         -2.38757       -1.14539       -1.04880
C         -3.96233       -0.35914        0.20629
C         -4.40817        0.72107        0.96356
H         -5.37901        0.69605        1.44683
C         -3.59852        1.84698        1.09448
H         -3.94138        2.69530        1.67954
C         -2.34187        1.89418        0.49119
C         -1.52388        3.13216        0.69945
O         -1.90654        4.24420        0.38934
O         -0.37881        2.88403        1.32010
C          0.50533        4.00474        1.48789
H          0.74861        4.42928        0.51144
H          0.03690        4.75848        2.12349
H          1.39667        3.60120        1.96424
I         -5.18186       -2.06745       -0.01311
