16
id_762_ca.log	Energy: -227700.9144906
C          1.97804        1.17060       -0.45104
H          2.87902        1.43546       -1.01289
H          1.89972        1.85106        0.40487
H          1.11517        1.35120       -1.10361
C          2.02808       -0.28221        0.01351
H          2.08265       -0.95356       -0.85071
H          2.92901       -0.45488        0.61112
C          0.81126       -0.65962        0.86726
H          0.76911       -0.03354        1.76460
H          0.87534       -1.70544        1.18535
C         -0.45880       -0.51756        0.06538
O         -0.68175       -1.16919       -0.95984
N         -1.35504        0.35965        0.57143
H         -1.08002        1.06866        1.24454
O         -2.43574        0.72410       -0.20803
H         -3.19626        0.21697        0.12904
