8
id_781_cb.log	Energy: -190537.0201608
C          1.71551       -0.51118        0.00000
H          1.62988       -1.59811       -0.00001
H          2.26831       -0.18453       -0.88515
H          2.26830       -0.18454        0.88516
C          0.37084        0.15980       -0.00000
O          0.22252        1.37678        0.00000
O         -0.62145       -0.71671       -0.00000
O         -1.93664       -0.15063        0.00000
