16
id_763_cb.log	Energy: -368723.0576749
C          1.96537        2.17552        0.00000
H          2.44720        3.14839        0.00000
C          2.74815        1.02205        0.00000
H          3.83008        1.11188        0.00000
C          2.16142       -0.25546        0.00000
H          2.76956       -1.15508        0.00000
C          0.78263       -0.31507        0.00000
C         -0.00000        0.84014        0.00000
C          0.56203        2.10012        0.00000
H         -0.05242        2.99548       -0.00000
C         -1.42992        0.41265       -0.00000
O         -2.43731        1.10811       -0.00000
N         -1.42812       -0.96870       -0.00000
C         -0.14685       -1.48497       -0.00000
O          0.12248       -2.67956        0.00000
O         -2.54200       -1.71475       -0.00000
