45
id_771_cb.log	Energy: -1083208.5729339
C          5.12981        1.71965        2.34841
H          6.17476        1.94369        2.12510
H          5.05434        1.36461        3.38140
H          4.54314        2.64088        2.27185
C          4.58459        0.68582        1.41121
C          5.36755        0.11414        0.40913
H          6.40249        0.40690        0.27043
C          4.77925       -0.85853       -0.39313
N          3.49961       -1.22906       -0.22289
C          2.82264       -0.59440        0.73164
N          3.30430        0.33221        1.57286
N          1.49050       -0.91477        0.97111
H          1.09782       -0.39693        1.75055
C          0.53069       -1.36762        0.05914
O          0.83621       -1.84989       -1.03988
N         -0.71520       -1.21255        0.58244
S         -1.95719       -1.52850       -0.37906
O         -1.85819       -0.93621       -1.73414
O         -2.34313       -2.95789       -0.36226
C         -3.28380       -0.62715        0.41937
C         -4.16980       -1.32305        1.23284
H         -4.01464       -2.38128        1.41787
C         -5.26346       -0.65746        1.78807
H         -5.95307       -1.19938        2.42741
C         -5.47796        0.68867        1.50542
H         -6.33594        1.20486        1.92433
C         -4.59345        1.38035        0.67771
H         -4.75539        2.43055        0.45185
C         -3.48257        0.73148        0.14111
C         -2.55162        1.55010       -0.70430
O         -2.87480        2.10614       -1.73487
O         -1.34824        1.66099       -0.14576
C         -0.36132        2.40688       -0.86954
H         -0.74301        3.40145       -1.09516
C          0.30413        1.62452       -2.00440
H         -0.13958        0.64676       -2.21075
H          0.45201        2.19298       -2.92607
O          1.53836        1.51010       -1.24943
C          0.98966        2.30090       -0.16897
H          1.52597        3.24571       -0.05067
H          0.96824        1.74845        0.77508
C          5.54282       -1.55386       -1.47846
H          6.57354       -1.19727       -1.52885
H          5.05828       -1.38133       -2.44504
H          5.54695       -2.63404       -1.29993
