14
id_718_cb.log	Energy: -203659.3778592
C          2.03078        0.42634       -0.24083
H          3.01231        0.80734       -0.48419
C          0.81571        1.17664       -0.07978
H          0.68422        2.24529       -0.17706
C         -0.15910        0.28051        0.22374
O          0.37219       -0.98211        0.25852
C          1.70254       -0.87055       -0.02770
H          2.26115       -1.79441       -0.03781
C         -1.62511        0.38902        0.47947
H         -1.88242        1.45035        0.50303
H         -1.85473       -0.02147        1.46772
N         -2.47865       -0.29080       -0.50318
H         -2.20519       -1.27311       -0.52116
H         -2.23123        0.06669       -1.42583
