40
id_736_cb.log	Energy: -971801.3900561
C         -1.21351       -3.50570       -0.33067
H         -2.16070       -3.86172        0.07990
H         -0.40997       -3.81893        0.34297
H         -1.04843       -3.99316       -1.29558
C         -1.26352       -2.01910       -0.45450
C         -2.33038       -1.18403       -0.30678
C         -1.84730        0.17215       -0.43765
C         -2.53242        1.39690       -0.40500
H         -3.60310        1.41699       -0.22814
C         -1.79596        2.55510       -0.61910
C         -0.41172        2.49548       -0.87937
H          0.11987        3.42382       -1.06540
C          0.26795        1.28721       -0.90762
H          1.32874        1.27594       -1.13157
C         -0.46192        0.12163       -0.64960
N         -0.09470       -1.24157       -0.64894
C          1.17576       -1.76595       -0.86159
O          1.33188       -2.85069       -1.40669
C          2.33666       -0.98223       -0.35602
C          3.51047       -0.96019       -1.11242
H          3.54450       -1.46762       -2.07199
C          4.62790       -0.27298       -0.64938
H          5.53875       -0.23386       -1.23769
C          4.55651        0.36209        0.58788
C          3.40358        0.33025        1.36882
H          3.37799        0.82226        2.33543
C          2.28536       -0.33965        0.88450
H          1.37734       -0.36547        1.48040
Cl         5.95668        1.22111        1.18084
O         -2.33369        3.81693       -0.61130
C         -3.72992        3.92537       -0.36330
H         -3.98357        3.51942        0.62180
H         -4.30497        3.40552       -1.13701
H         -3.95719        4.99092       -0.39094
C         -3.75579       -1.52987       -0.02955
H         -3.92078       -2.61103       -0.09960
H         -4.41101       -1.06929       -0.77810
C         -4.26001       -1.09666        1.35953
O         -5.51442       -1.01496        1.49869
O         -3.41611       -0.88134        2.27115
