14
id_703_cb.log	Energy: -442561.7034343
C         -3.04619       -0.93581        0.03140
H         -3.99575       -0.74120       -0.47576
H         -3.23194       -0.97568        1.10883
H         -2.67070       -1.90865       -0.29950
C         -2.06474        0.16249       -0.30457
H         -2.42042        1.14085        0.03007
H         -1.85935        0.21068       -1.37798
O         -0.83137       -0.13829        0.38047
C          0.18641        0.71743        0.20331
O          0.06127        1.74508       -0.45153
C          1.45407        0.25867        0.84476
H          1.22015       -0.30486        1.75132
H          2.03340        1.14526        1.11302
S          2.36925       -0.78984       -0.37068
