20
id_778_ca.log	Energy: -502248.7821805
C         -0.59020       -1.87775       -0.01332
H          0.30881       -2.27319        0.46990
H         -0.55290       -2.12223       -1.07924
H         -1.46143       -2.37015        0.42776
C         -0.69578       -0.36937        0.21047
C         -0.65311       -0.05584        1.70661
H          0.30192       -0.38647        2.12800
H         -1.45334       -0.59942        2.21819
H         -0.78007        1.01025        1.92059
C          0.41765        0.36371       -0.57519
C          1.84030       -0.11609       -0.18492
O          2.28068       -1.11073       -0.80412
O          2.41460        0.53988        0.72087
N          0.36421        1.83472       -0.31374
H          0.86345        2.35133       -1.04710
H          0.84011        2.03600        0.57691
H         -0.60166        2.18822       -0.27582
S         -2.29617        0.24385       -0.51822
H         -3.02683        0.10161        0.60095
H          0.27579        0.21816       -1.64831
