34
id_761_cb.log	Energy: -610834.2540479
C         -4.10649        2.15443       -0.30472
H         -4.82402        2.96951       -0.31802
C         -2.72519        2.43188       -0.45398
H         -2.39287        3.45902       -0.57251
C         -1.80046        1.41474       -0.44236
H         -0.74793        1.66256       -0.54304
C         -2.21282        0.06175       -0.28307
C         -3.60178       -0.21640       -0.11535
C         -4.53115        0.85982       -0.13554
H         -5.58708        0.63226       -0.01111
C         -4.03611       -1.55560        0.08160
H         -5.09795       -1.74546        0.21588
C         -3.12822       -2.58392        0.10021
H         -3.45886       -3.60759        0.24718
C         -1.74973       -2.32768       -0.09187
H         -1.04351       -3.15039       -0.10987
C         -1.29951       -1.04096       -0.27599
N          0.07914       -0.78094       -0.47882
H          0.31957       -0.04121       -1.13154
C          1.08445       -1.24256        0.30909
O          0.93623       -2.10961        1.17404
C          2.43846       -0.66682        0.00802
C          3.42951       -1.54610       -0.43333
H          3.19687       -2.60249       -0.53942
C          4.69963       -1.06775       -0.74874
H          5.46663       -1.75470       -1.09328
C          4.97734        0.29361       -0.62539
H          5.96602        0.67233       -0.86733
C          3.98750        1.17029       -0.18483
H          4.20387        2.22923       -0.07618
C          2.71403        0.70134        0.14708
C          1.69003        1.66861        0.72183
O          0.96666        1.24279        1.66190
O          1.65566        2.82823        0.22846
