24
id_72_ca.log	Energy: -337910.4008167
C          3.15024        1.22890        0.69290
H          3.07058        2.08986        0.01649
H          4.00685        1.41643        1.34760
H          2.24485        1.20412        1.30669
C          3.35767       -0.05067       -0.06580
H          4.39109       -0.28546       -0.31762
C          2.43012       -0.94739       -0.43808
H          2.77752       -1.85945       -0.92282
C          0.96893       -0.87542       -0.23780
C          0.24741       -2.05904       -0.04842
H          0.77225       -3.01071       -0.04643
C         -1.13405       -2.03665        0.14694
H         -1.69520       -2.95355        0.30266
C         -1.81192       -0.82745        0.14055
C         -1.10786        0.36930       -0.07425
C          0.26789        0.34522       -0.26630
H          0.79968        1.26731       -0.47040
O         -1.88795        1.49289       -0.08256
C         -1.23047        2.74242       -0.26998
H         -0.74408        2.77909       -1.24978
H         -0.49195        2.91087        0.52076
H         -2.01047        3.50117       -0.21591
O         -3.17060       -0.80670        0.32859
H         -3.48051        0.11553        0.28186
