13
id_798_ca.log	Energy: -769632.8451924
C          1.76134       -1.31087        0.00000
H          2.54135       -2.06699       -0.00000
C          0.42217       -1.68085        0.00000
H          0.14891       -2.73117        0.00000
C         -0.58020       -0.71389        0.00000
C         -0.22760        0.63717        0.00000
C          1.10851        1.02124        0.00000
H          1.38189        2.07145        0.00000
C          2.10057        0.04256        0.00000
O          3.39755        0.47279       -0.00000
H          4.00110       -0.29007        0.00001
Cl        -1.44563        1.87881        0.00000
Cl        -2.24628       -1.21633       -0.00000
