53
id_755_ca.log	Energy: -865442.4677754
C         -0.97318        1.48017        1.61357
H         -1.68022        0.67900        1.86045
H         -1.45003        2.45156        1.75521
H         -0.08883        1.39967        2.25555
O         -0.59226        1.41353        0.23539
C         -0.02098        0.21028       -0.09056
C          1.38363        0.07391       -0.08776
C          1.96195       -1.20791       -0.17239
C          1.12365       -2.31678       -0.37090
H          1.54881       -3.31028       -0.46671
C         -0.22446       -2.14516       -0.47978
C         -0.87445       -0.89028       -0.33504
N         -2.23184       -0.76439       -0.40479
C         -2.94284        0.46051       -0.81109
H         -2.90198        1.23119       -0.03493
H         -2.50076        0.87669       -1.72231
C         -4.38258       -0.01756       -1.01448
C         -5.43888        1.07927       -0.86654
H         -5.18385        1.93385       -1.50542
H         -6.39712        0.68523       -1.22998
C         -5.61202        1.52087        0.58910
H         -6.47823        2.18710        0.67680
H         -4.73566        2.08865        0.92953
C         -5.79539        0.30653        1.49544
H         -6.71547       -0.22505        1.21839
H         -5.90144        0.61622        2.53929
N         -4.68762       -0.65615        1.41036
H         -3.83153       -0.16893        1.68748
C         -4.50923       -1.13929        0.03370
C         -3.17988       -1.86154       -0.12159
H         -3.23891       -2.56907       -0.95441
H         -2.88479       -2.40283        0.78216
F         -0.98273       -3.23340       -0.75339
C          3.40178       -1.43561       -0.00797
O          3.87932       -2.58416       -0.08849
C          4.17176       -0.24205        0.27598
C          3.54631        0.98782        0.25742
H          4.12194        1.89508        0.39406
N          2.23695        1.18155        0.05070
C          1.78201        2.55384       -0.16675
H          1.30402        2.99788        0.69869
C          2.60472        3.43788       -1.05343
H          2.68924        4.47753       -0.75606
H          3.48900        3.01880       -1.52334
C          1.26967        2.92095       -1.51823
H          1.28152        2.14216       -2.27549
H          0.42048        3.59481       -1.55441
C          5.61797       -0.28718        0.52469
O          6.32594       -1.27968        0.45834
O          6.13841        0.91507        0.85345
H          7.09860        0.80516        0.98956
H         -4.46405       -0.47654       -2.00784
H         -5.34729       -1.80448       -0.19948
