48
id_726_cb.log	Energy: -860864.2096998
C         -6.77477       -1.90672       -1.21343
H         -7.04364       -1.38498       -2.13611
H         -7.46048       -1.62260       -0.40991
H         -6.81257       -2.98500       -1.37072
O         -5.42895       -1.62143       -0.84798
N         -5.28735       -0.25809       -0.63138
C         -4.08818        0.02812       -0.30846
C         -2.94604       -0.93257       -0.16112
H         -2.73426       -1.42250       -1.12058
H         -3.18736       -1.70679        0.57042
N         -1.84416       -0.06917        0.28365
C         -2.14024        1.34667        0.01350
H         -1.67084        1.98387        0.76511
H         -1.75530        1.64049       -0.97020
C         -3.66864        1.43383        0.04166
C         -4.17894        1.81648        1.43033
H         -3.79626        2.79102        1.73212
H         -3.91165        1.06945        2.17912
N         -5.66964        1.91310        1.41360
H         -5.97764        2.71101        0.84512
H         -6.04591        2.03523        2.36019
H         -6.08701        1.06339        1.00485
C         -0.53743       -0.46598        0.22175
C         -0.14869       -1.83426        0.29275
C          1.16498       -2.18416        0.24946
H          1.45526       -3.22798        0.30762
C          2.14676       -1.17871        0.14959
C          3.57441       -1.52433        0.12900
O          3.92029       -2.71956        0.16261
C          4.46610       -0.37819        0.07716
C          3.92558        0.87813        0.01896
H          4.58698        1.73468       -0.02121
N          2.60328        1.17114        0.00348
C          1.68092        0.13991        0.09711
N          0.38789        0.48452        0.13366
C          2.14937        2.54789       -0.03866
H          1.79144        2.91102        0.91923
C          1.46578        3.04934       -1.26921
H          1.36181        2.34843       -2.09074
H          0.63400        3.73086       -1.12920
C          2.85678        3.51106       -0.93861
H          3.00148        4.51684       -0.56125
H          3.66353        3.12921       -1.55545
C          5.98650       -0.46198        0.08273
O          6.51940       -1.59659        0.16454
O          6.60799        0.63352        0.00524
F         -1.09561       -2.78201        0.42547
H         -4.03651        2.15718       -0.69110
