31
id_789_cb.log	Energy: -1110680.2051832
C         -5.75872       -0.47386       -0.68581
H         -5.52965       -0.24362       -1.72998
H         -6.03105        0.43700       -0.14536
H         -6.57213       -1.19558       -0.63330
O         -4.64140       -1.11024       -0.05905
C         -3.49193       -0.42369        0.01549
C         -3.32150        0.86198       -0.47931
H         -4.09429        1.42984       -0.97900
C         -2.04739        1.40350       -0.28782
N         -1.05819        0.75830        0.32355
C         -1.35004       -0.47511        0.72761
N         -2.50621       -1.11022        0.61630
S         -0.09581       -1.43019        1.55672
C          1.35465       -0.43193        1.26302
C          1.79130        0.45415        2.24775
H          1.23849        0.54072        3.17824
C          2.92645        1.23172        2.02729
H          3.26858        1.92474        2.78920
C          3.62311        1.12713        0.82619
H          4.50514        1.73147        0.63920
C          3.17610        0.22909       -0.13838
C          2.05178       -0.57081        0.05522
C          1.59767       -1.56199       -1.01103
O          2.14609       -2.69215       -0.98905
O          0.72118       -1.16228       -1.81715
Cl         4.06128        0.10519       -1.64512
O         -1.83404        2.64262       -0.74745
C         -0.52488        3.20339       -0.57714
H          0.22247        2.58825       -1.08362
H         -0.28173        3.29060        0.48385
H         -0.57798        4.18974       -1.03549
