16
id_770_ca.log	Energy: -420180.2050660
C         -0.80597        2.11722       -0.00142
H         -1.45749        2.10859       -0.88387
H         -0.24341        3.05405       -0.00400
H         -1.45597        2.11330        0.88223
C          0.12699        0.93693        0.00000
C          1.51371        1.11623       -0.00023
H          1.90552        2.13064       -0.00117
C          2.39099        0.03266       -0.00024
H          3.46371        0.20136       -0.00079
C          1.88064       -1.26477        0.00032
H          2.54962       -2.12045        0.00062
C          0.50279       -1.47108        0.00120
H          0.10852       -2.48407        0.00270
C         -0.37005       -0.37845        0.00047
S         -2.13731       -0.59960        0.00293
H         -2.10824       -1.94215       -0.04318
