45
id_739_cb.log	Energy: -791968.6165855
C         -1.23335        3.13188        1.18657
H         -0.83495        4.15053        1.16498
H         -0.54098        2.49584        1.74791
H         -2.19681        3.14247        1.70424
C         -1.40739        2.62225       -0.23805
C         -0.10358        2.56904       -1.01258
H         -0.27570        2.24365       -2.04454
H          0.38665        3.54237       -1.00819
O          0.81231        1.66289       -0.38603
C          0.30907        0.41000       -0.19184
C         -1.08302        0.18642       -0.13570
N         -1.96138        1.25485       -0.23437
C         -3.28335        1.04662       -0.18374
H         -3.89301        1.94186       -0.24924
C         -3.88482       -0.18891       -0.06144
C         -3.04786       -1.36561        0.03731
O         -3.45550       -2.54257        0.14282
C         -1.59263       -1.11292        0.00393
C         -0.69270       -2.17867        0.13603
H         -1.05323       -3.19267        0.27026
C          0.65545       -1.92518        0.13826
C          1.21975       -0.64401       -0.04296
N          2.59321       -0.36164       -0.10341
C          3.52834       -1.41332       -0.50826
H          3.69177       -2.14542        0.29508
H          3.12349       -1.93678       -1.37825
C          4.85956       -0.77490       -0.86915
H          4.72295       -0.09630       -1.73159
H          5.56267       -1.55909       -1.16729
N          5.42033       -0.04870        0.27163
C          4.47334        0.98831        0.68351
H          4.87928        1.51355        1.55378
H          4.33637        1.72999       -0.12608
C          3.12317        0.39371        1.04085
H          3.22325       -0.27119        1.91444
H          2.42975        1.19576        1.30075
C          6.68199        0.57065       -0.11586
H          7.10447        1.11551        0.73319
H          7.39447       -0.19954       -0.42459
H          6.55176        1.27894       -0.95266
F          1.48926       -2.97282        0.33651
C         -5.39994       -0.19885       -0.03617
O         -6.00184       -1.29512        0.12702
O         -5.97995        0.91803       -0.17919
H         -2.11281        3.24941       -0.78885
