49
id_721_ca.log	Energy: -816884.3820346
C         -5.85884       -1.55217        1.22632
H         -5.51592       -2.57021        1.42916
H         -5.84591       -0.98664        2.16412
H         -6.88635       -1.60132        0.85458
C         -4.94513       -0.91317        0.19997
C         -3.50942       -0.79425        0.68646
H         -3.49852       -0.25850        1.65106
H         -3.12233       -1.79987        0.85660
N         -2.68148       -0.09104       -0.29679
C         -3.15525        1.26829       -0.53264
H         -3.15081        1.87549        0.38529
H         -2.52115        1.75681       -1.27412
C         -4.56937        1.20546       -1.08055
H         -4.98565        2.20529       -1.20819
H         -4.61673        0.65835       -2.02341
N         -5.44345        0.47417       -0.10942
H         -6.40112        0.41771       -0.47587
H         -5.49594        1.00925        0.76935
C         -1.31007       -0.37720       -0.28345
C         -0.89811       -1.68635       -0.62018
C          0.40550       -2.08637       -0.61849
H          0.66539       -3.11250       -0.85454
C          1.41422       -1.15022       -0.32975
C          1.06709        0.18660       -0.05878
C         -0.30612        0.54150        0.03568
O         -0.66809        1.77582        0.50357
C         -0.89690        1.78891        1.91758
H          0.01195        1.49320        2.45367
H         -1.16447        2.81475        2.17495
H         -1.71629        1.11099        2.18195
N          2.09002        1.10891        0.16607
C          3.35975        0.66633        0.29438
H          4.08713        1.43697        0.52242
C          3.77059       -0.63450        0.15323
C          2.81091       -1.62045       -0.27854
O          3.08723       -2.79629       -0.59871
C          5.22647       -0.93948        0.43107
O          5.52958       -2.11621        0.76877
O          6.04712        0.01890        0.34023
C          1.87283        2.55167        0.13563
H          1.51404        2.96494        1.07195
C          2.80879        3.38380       -0.68753
H          3.08735        4.34939       -0.27947
H          3.58832        2.87631       -1.24704
C          1.38823        3.16735       -1.13408
H          1.23243        2.49738       -1.97487
H          0.67359        3.97863       -1.04558
F         -1.85984       -2.57782       -0.94992
H         -4.97409       -1.45272       -0.75068
