44
id_787_ca.log	Energy: -1162835.1049506
C         -4.82825       -1.78778       -1.95720
H         -5.13483       -0.99101       -2.64347
H         -5.73172       -2.31609       -1.63998
H         -4.16011       -2.47359       -2.47778
C         -4.15343       -1.18023       -0.77312
N         -2.85399       -1.42772       -0.59141
C         -2.32104       -0.83016        0.47560
N         -2.96593       -0.06364        1.35101
C         -4.25930        0.09867        1.07110
N         -4.90665       -0.41847        0.03191
O         -4.90785        0.85909        1.94635
C         -6.30781        1.09670        1.73506
H         -6.46586        1.60889        0.78452
H         -6.61175        1.73319        2.56426
H         -6.85933        0.15534        1.75618
N         -0.98426       -1.02363        0.78214
H         -0.70271       -0.59124        1.65875
C          0.01644       -1.46735       -0.06209
O         -0.12269       -1.75593       -1.23201
N          1.23362       -1.54391        0.62038
H          1.24838       -1.39535        1.63123
S          2.75672       -1.82220       -0.03170
O          3.33547       -2.90467        0.75455
O          2.61254       -1.99700       -1.46872
C          3.66963       -0.33470        0.32400
C          4.82412       -0.50305        1.09245
H          5.08153       -1.48272        1.47922
C          5.63670        0.59496        1.35086
H          6.53536        0.47158        1.94617
C          5.28987        1.84215        0.83469
H          5.92133        2.70498        1.02349
C          4.13361        1.98958        0.07350
H          3.87019        2.96650       -0.32506
C          3.28897        0.90943       -0.20277
C          2.02703        1.18182       -0.99162
H          2.29477        1.78896       -1.86260
H          1.57094        0.26729       -1.37674
C          1.02826        1.96047       -0.12318
H          1.46010        2.91053        0.20570
H          0.74306        1.39216        0.76892
C         -0.23454        2.29063       -0.86719
F         -0.00610        3.04295       -1.96428
F         -1.10165        2.98346       -0.10092
F         -0.89533        1.19232       -1.29320
