21
id_733_cb.log	Energy: -276721.2874543
C          3.55096       -1.23880        0.06661
H          3.55445       -1.56388       -0.98031
H          3.05363       -2.01782        0.65598
H          4.59148       -1.17667        0.40211
C          2.83163        0.09896        0.21692
H          3.35898        0.86887       -0.36200
H          2.86348        0.42049        1.26644
C          1.37681        0.03551       -0.24338
H          0.84769       -0.73170        0.34113
H          1.34126       -0.29244       -1.29286
C          0.65147        1.37237       -0.10946
H          1.20249        2.14478       -0.66016
H          0.63918        1.68153        0.94351
C         -0.78456        1.32500       -0.64155
H         -0.77897        1.06948       -1.70749
H         -1.25318        2.31098       -0.53931
C         -1.63051        0.33963        0.13407
O         -1.78850        0.45936        1.38360
N         -2.18350       -0.63889       -0.56207
H         -2.02028       -0.69313       -1.56361
O         -2.97283       -1.60241       -0.02213
