54
id_758_ca.log	Energy: -865731.9555830
C         -0.93395        1.50392        1.58577
H         -1.42194        2.47084        1.71822
H         -0.04004        1.44546        2.21661
H         -1.62477        0.69632        1.85524
O         -0.57113        1.41958        0.20330
C          0.00137        0.21628       -0.11578
C          1.40663        0.07806       -0.11234
C          1.98101       -1.20405       -0.20583
C          1.14395       -2.31033       -0.41680
H          1.56854       -3.30319       -0.52106
C         -0.20483       -2.13567       -0.52215
C         -0.84917       -0.88282       -0.36100
N         -2.21312       -0.75392       -0.41259
C         -2.92179        0.46455       -0.84286
H         -2.86472        1.25592       -0.08812
H         -2.49577        0.85557       -1.77178
C         -4.37020       -0.00532       -1.02357
C         -5.42582        1.08932       -0.85681
H         -5.16785        1.94384       -1.49134
H         -6.38773        0.70025       -1.21076
C         -5.57845        1.53714        0.59856
H         -6.43602        2.20845        0.69859
H         -4.69525        2.09159        0.93898
C         -5.79944        0.34593        1.51281
H         -5.86386        0.62854        2.56391
H         -6.68956       -0.22428        1.23426
N         -4.63676       -0.59399        1.38151
H         -3.77678       -0.10349        1.66480
H         -4.74645       -1.37930        2.03388
C         -4.48098       -1.14630       -0.01065
C         -3.14789       -1.85903       -0.14124
H         -3.21792       -2.56586       -0.97317
H         -2.86301       -2.40595        0.76337
F         -0.96759       -3.21880       -0.80102
C          3.42186       -1.43529       -0.03592
O          3.90011       -2.57978       -0.14754
C          4.18747       -0.24862        0.28442
C          3.56679        0.98361        0.26205
H          4.14243        1.88828        0.41541
N          2.26108        1.18251        0.03768
C          1.81220        2.55739       -0.17605
H          1.33074        2.99965        0.68844
C          2.64536        3.44167       -1.05259
H          2.73220        4.47955       -0.74979
H          3.53153        3.02026       -1.51681
C          1.31165        2.93277       -1.52966
H          1.32547        2.15735       -2.29033
H          0.46584        3.61068       -1.56884
C          5.62362       -0.30545        0.58551
O          6.16462        0.90721        0.83024
O          6.30459       -1.31757        0.63388
H         -4.47239       -0.46875       -2.01055
H         -5.33763       -1.80105       -0.17614
H          7.11289        0.78442        1.02572
