24
id_734_ca.log	Energy: -429150.5830941
C         -4.38127        0.31149       -0.38487
H         -5.43448        0.43577       -0.61929
C         -3.59302        1.42700       -0.09813
H         -4.02855        2.42156       -0.11226
C         -2.24415        1.26618        0.20741
H         -1.62439        2.12881        0.43227
C         -1.67340       -0.01059        0.21666
C         -2.46578       -1.12822       -0.06888
H         -2.04698       -2.13012       -0.03935
C         -3.81729       -0.96457       -0.36610
H         -4.43019       -1.83538       -0.57805
C         -0.21996       -0.12086        0.55160
O          0.36762        0.76498        1.19057
N          0.43693       -1.22489        0.14001
H          0.00511       -1.85413       -0.52519
C          1.85630       -1.33732        0.36930
H          2.07516       -1.32977        1.44095
H          2.19805       -2.29025       -0.04181
C          2.62955       -0.22654       -0.33257
O          2.24769        0.30758       -1.37154
N          3.77162        0.11731        0.29845
H          4.17704       -0.46633        1.02484
O          4.69796        0.87569       -0.38874
H          4.59736        1.78755       -0.06019
