7
id_717_ca.log	Energy: -153720.8952197
C          0.76815        0.49251        0.00003
H          1.30098        1.44918        0.00010
O          1.32425       -0.61765        0.00001
N         -0.55222        0.61931       -0.00016
H         -1.06944        1.49103        0.00043
O         -1.35604       -0.50465        0.00006
H         -0.72052       -1.25196       -0.00007
