13
id_74_ca.log	Energy: -169081.4818026
C         -2.19077       -0.21988        0.08357
H         -2.74081       -1.01724       -0.41925
H         -2.63741        0.74959       -0.17260
H         -2.24684       -0.36553        1.16999
O         -0.84661       -0.28527       -0.36151
C         -0.04130        0.72081        0.23193
H         -0.39212        1.71699       -0.07439
H         -0.10433        0.64568        1.32749
C          1.38206        0.50882       -0.22666
H          2.02261        1.28649        0.19567
H          1.43427        0.56749       -1.32123
O          1.90042       -0.73983        0.22388
H          1.33423       -1.44122       -0.13766
