6
id_750_ca.log	Energy: -275245.2635330
C          1.15698        0.01886       -0.00000
H          1.53021       -1.00686        0.00000
H          1.51924        0.52755        0.89436
H          1.51924        0.52755       -0.89436
S         -0.66278       -0.08719       -0.00000
H         -0.90612        1.23367        0.00000
