43
id_730_ca.log	Energy: -1391375.6453135
C         -3.68961       -2.73535       -1.82599
H         -2.75534       -2.77843       -2.38300
H         -3.73515       -3.53741       -1.09060
H         -4.53657       -2.79872       -2.50569
N         -3.80862       -1.43413       -1.15693
C         -2.98916       -0.81681       -0.28254
C         -3.57051        0.40001        0.07015
C         -4.76207        0.40180       -0.67464
N         -4.89252       -0.69358       -1.40553
Cl        -5.96642        1.61587       -0.75874
C         -2.97996        1.43023        0.94114
O         -1.78215        1.48968        1.16918
O         -3.87337        2.27053        1.42918
C         -3.35928        3.33434        2.25499
H         -2.65354        3.93685        1.68100
H         -4.23025        3.92196        2.53678
H         -2.87431        2.91284        3.13679
S         -1.51938       -1.56854        0.37852
O         -1.57229       -1.44797        1.82752
O         -1.36631       -2.88465       -0.21499
N         -0.36435       -0.54500       -0.27851
H         -0.62559        0.43762       -0.11678
C          0.99305       -0.86995       -0.04398
O          1.32613       -1.95584        0.39085
N          1.81078        0.16346       -0.40434
H          1.38182        0.97487       -0.84266
C          3.20332        0.24530       -0.30731
N          3.86462       -0.72361        0.31835
C          5.18397       -0.55790        0.37076
C          5.85298        0.54308       -0.16959
H          6.92825        0.62943       -0.09497
C          5.03305        1.47759       -0.78708
N          3.70234        1.33902       -0.86628
O          5.47793        2.60252       -1.36475
C          6.88578        2.85529       -1.33729
H          7.42521        2.06442       -1.86557
H          7.23826        2.93411       -0.30531
H          7.02087        3.80553       -1.85101
O          5.93328       -1.48731        0.97392
C          5.27141       -2.63366        1.52626
H          4.57546       -2.33118        2.31107
H          4.74152       -3.18162        0.74468
H          6.06935       -3.24592        1.94369
