35
id_761_ca.log	Energy: -611115.0767416
C         -4.07409        2.19282       -0.44190
H         -4.77182        3.02347       -0.49179
C         -2.68978        2.42573       -0.63429
H         -2.33645        3.43491       -0.82449
C         -1.78979        1.38823       -0.57598
H         -0.73321        1.59834       -0.71500
C         -2.23187        0.05895       -0.32372
C         -3.62372       -0.17415       -0.11741
C         -4.52689        0.92202       -0.18706
H         -5.58553        0.72948       -0.03082
C         -4.08607       -1.48827        0.16603
H         -5.14973       -1.64345        0.32758
C         -3.20313       -2.53626        0.23295
H         -3.55588       -3.54074        0.44579
C         -1.82190       -2.32549        0.00737
H         -1.13389       -3.16367        0.03121
C         -1.34620       -1.06349       -0.26048
N          0.03749       -0.84997       -0.48871
H          0.29438       -0.16244       -1.19075
C          1.02781       -1.25713        0.34283
O          0.87120       -2.03959        1.28076
C          2.39185       -0.72592       -0.00722
C          3.32103       -1.62051       -0.53371
H          3.04188       -2.66193       -0.66742
C          4.59143       -1.17627       -0.89893
H          5.30887       -1.87889       -1.31153
C          4.93657        0.16476       -0.73906
H          5.92545        0.51194       -1.02113
C          4.01442        1.06265       -0.20761
H          4.28644        2.10282       -0.06243
C          2.74170        0.62222        0.16625
C          1.78560        1.55732        0.82110
O          0.87074        1.20081        1.54127
O          2.03825        2.84347        0.55632
H          1.40372        3.39927        1.04982
