48
id_724_cb.log	Energy: -860865.6203913
C          5.29330        3.31332       -0.61477
H          6.08974        3.25009        0.13291
H          4.79244        4.27952       -0.54148
H          5.71535        3.18875       -1.61644
O          4.28933        2.33941       -0.36433
N          4.85649        1.06534       -0.43376
C          3.96271        0.17272       -0.25875
C          2.49907        0.41826       -0.03936
H          2.08206        1.04889       -0.83492
H          2.31091        0.92714        0.91249
N          1.92865       -0.92879       -0.05954
C          2.90778       -1.94061       -0.50150
H          2.78328       -2.86572        0.06138
H          2.78139       -2.15659       -1.56765
C          4.26999       -1.29689       -0.21829
C          4.80930       -1.69595        1.17258
H          4.88586       -2.78689        1.19860
H          4.07703       -1.40737        1.93488
N          6.10384       -1.12867        1.52468
H          6.04302       -0.11434        1.43271
H          6.77536       -1.41591        0.81231
C          0.58277       -1.06365       -0.10324
C         -0.07945       -2.30658       -0.34684
C         -1.43595       -2.37739       -0.36475
H         -1.92896       -3.32537       -0.55279
C         -2.19584       -1.21145       -0.13772
C         -3.65785       -1.25765       -0.13459
O         -4.26550       -2.31889       -0.34021
C         -4.28583        0.02673        0.13769
C         -3.51034        1.14392        0.34881
H         -3.96681        2.10323        0.55960
N         -2.16738        1.15351        0.31178
C         -1.47303       -0.03673        0.08737
N         -0.14213        0.03729        0.11216
C         -1.42760        2.37696        0.57137
H         -0.97580        2.39507        1.55723
C         -1.93067        3.66294       -0.00350
H         -2.81473        3.63038       -0.63182
H         -1.84281        4.54293        0.62313
C         -0.68355        3.02590       -0.54887
H          0.28216        3.45899       -0.31264
H         -0.75926        2.55568       -1.52360
C         -5.74964        0.15854        0.19258
O         -6.55019       -0.73456       -0.01424
O         -6.15745        1.40696        0.50491
H         -7.13292        1.40065        0.51494
F          0.64861       -3.41600       -0.56541
H          5.00834       -1.57353       -0.97572
