41
id_737_ca.log	Energy: -1051744.2441745
C         -6.86241       -0.41794       -2.44868
H         -7.92927       -0.60483       -2.32722
H         -6.45438       -1.09595       -3.20486
H         -6.70676        0.60504       -2.80537
C         -6.13514       -0.61300       -1.16084
N         -4.80475       -0.40910       -1.18281
C         -4.20123       -0.59562       -0.02032
N         -4.79013       -0.95507        1.12857
C         -6.09894       -1.12352        1.02588
N         -6.83095       -0.96954       -0.08635
O         -6.80364       -1.47942        2.09269
C         -6.10829       -1.67501        3.33299
H         -6.88025       -1.95710        4.04671
H         -5.62214       -0.74869        3.64403
H         -5.37258       -2.47480        3.23174
N         -2.83432       -0.40930        0.10653
H         -2.48578       -0.54829        1.05195
C         -1.92105       -0.09714       -0.87347
O         -2.14216       -0.00028       -2.06465
N         -0.63186        0.06196       -0.34279
H         -0.56013        0.41526        0.61560
S          0.55194        0.69191       -1.36851
O          0.22108        2.05235       -1.78425
O          0.79500       -0.30482       -2.40274
C          1.96429        0.74902       -0.27763
C          2.88463       -0.28389       -0.41395
H          2.68659       -1.10735       -1.09181
C          4.06973       -0.22448        0.31907
C          4.33997        0.86294        1.14399
H          5.26885        0.91479        1.70173
C          3.41022        1.89629        1.25539
H          3.61542        2.74404        1.90190
C          2.20568        1.84625        0.56118
C          1.22540        2.95552        0.77395
O          1.51889        4.13248        0.75676
O          0.00799        2.48708        1.02289
C         -1.06140        3.44873        1.07091
H         -1.97266        2.86035        1.16309
H         -0.93273        4.10128        1.93595
H         -1.06844        4.03205        0.14812
I          5.46757       -1.79070        0.14766
