49
id_726_ca.log	Energy: -861157.1694608
C          6.81189       -1.90031        1.20871
H          7.07508       -1.38155        2.13468
H          7.50042       -1.61133        0.40941
H          6.85147       -2.97911        1.36194
O          5.46692       -1.61692        0.83818
N          5.32214       -0.25337        0.62701
C          4.12199        0.03076        0.30607
C          2.98397       -0.93432        0.15718
H          2.78695       -1.44300        1.10943
H          3.21934       -1.69274       -0.59291
N          1.87109       -0.06953       -0.25534
C          2.16922        1.34902       -0.00145
H          1.69541        1.97788       -0.75740
H          1.78873        1.65146        0.98104
C          3.69766        1.43594       -0.03978
C          4.19746        1.81930       -1.43227
H          3.81157        2.79347       -1.73108
H          3.92506        1.07191       -2.17897
N          5.68799        1.91723       -1.42662
H          5.99962        2.71556       -0.86067
H          6.05677        2.03952       -2.37618
H          6.10964        1.06812       -1.02115
C          0.57018       -0.46927       -0.20772
C          0.18415       -1.83989       -0.28039
C         -1.12808       -2.19324       -0.24639
H         -1.41674       -3.23740       -0.30577
C         -2.10994       -1.18719       -0.15285
C         -3.53358       -1.53143       -0.14015
O         -3.90392       -2.71340       -0.18077
C         -4.41689       -0.37691       -0.08244
C         -3.89002        0.89314       -0.02243
H         -4.53788        1.76019        0.01639
N         -2.57548        1.17048       -0.00907
C         -1.64870        0.13088       -0.09838
N         -0.36073        0.47984       -0.12734
C         -2.10952        2.54630        0.03384
H         -1.73814        2.89609       -0.92329
C         -1.43389        3.04293        1.26959
H         -1.34865        2.34437        2.09525
H         -0.59127        3.71178        1.13432
C         -2.81566        3.52040        0.92258
H         -2.94491        4.52505        0.53690
H         -3.63212        3.15265        1.53527
C         -5.87920       -0.53978       -0.08643
O         -6.47406       -1.59662       -0.18965
O         -6.54155        0.62898        0.03959
H         -7.49613        0.42856        0.01668
F          1.13277       -2.78418       -0.40417
H          4.07042        2.15916        0.69059
