17
id_78_cb.log	Energy: -170909.8913187
C          0.45522       -0.88431       -1.25100
H          1.41471       -1.41626       -1.28226
H          0.37793       -0.27480       -2.16101
H         -0.34465       -1.63281       -1.27721
C          0.35592       -0.00912        0.00000
C          1.50166        1.00575       -0.00008
H          2.47612        0.50174       -0.00003
H          1.45763        1.65049        0.88717
H          1.45764        1.65034       -0.88743
C          0.45520       -0.88410        1.25114
H          1.41469       -1.41605        1.28250
H         -0.34467       -1.63260        1.27748
H          0.37790       -0.27444        2.16106
C         -0.98143        0.77031       -0.00007
H         -0.94146        1.44530       -0.88520
H         -0.94146        1.44546        0.88494
O         -2.14047       -0.00470        0.00000
