23
id_713_cb.log	Energy: -1091855.5064791
C         -0.20075       -0.26868       -0.04952
H         -0.28293       -0.44145       -1.14401
C         -1.28172        0.78978        0.28626
C         -2.67300        0.52858       -0.33485
C         -3.34006       -0.84351       -0.10193
F         -4.60447       -0.77416       -0.53402
F         -2.72462       -1.79773       -0.79274
F         -3.36114       -1.16164        1.18968
F         -2.58658        0.69906       -1.67165
F         -3.52209        1.46111        0.15132
F         -0.95069        2.03899       -0.15652
F         -1.46195        0.89409        1.62563
C          1.18628        0.38527        0.13479
C          2.34014       -0.64650        0.08076
C          3.71746       -0.02662       -0.26327
F          4.68027       -0.91036        0.00443
F          3.79431        0.29299       -1.55332
F          3.93247        1.06841        0.46824
F          2.47944       -1.25330        1.27301
F          2.08830       -1.57793       -0.86150
F          1.28487        1.02228        1.33291
F          1.45400        1.31645       -0.82775
O         -0.34077       -1.36663        0.72514
