44
id_709_ca.log	Energy: -845667.1426525
C          6.76462        0.74297       -0.22710
H          6.59937        1.30160       -1.14914
H          7.10921        1.40624        0.56627
H          7.47958       -0.06338       -0.39046
N          5.46766        0.14398        0.18940
H          5.62895       -0.38877        1.05544
C          4.44641        1.19776        0.48989
H          4.84829        1.82468        1.28765
H          4.32847        1.78670       -0.42344
C          3.14004        0.55555        0.91090
H          3.27632        0.01137        1.85888
H          2.41066        1.34968        1.07654
N          2.66857       -0.35933       -0.13663
C          3.64169       -1.42578       -0.37073
H          3.27851       -2.09204       -1.15548
H          3.82882       -2.01860        0.53616
C          4.94771       -0.81237       -0.84050
H          4.82223       -0.23909       -1.76232
H          5.70742       -1.58310       -0.98235
C          1.30482       -0.68305       -0.07124
C          0.76904       -1.94735        0.24224
C         -0.57577       -2.20025        0.24830
H         -0.93873       -3.19244        0.49366
C         -1.48814       -1.17093       -0.02007
C         -1.02189        0.12730       -0.31651
C          0.37290        0.31210       -0.35667
F          0.88372        1.51262       -0.69584
N         -1.94583        1.13803       -0.57873
C         -3.26447        0.85284       -0.50004
H         -3.92246        1.69272       -0.69447
C         -3.80812       -0.36977       -0.19985
C         -2.93012       -1.48645        0.03733
O         -3.29971       -2.65797        0.25539
C         -5.31778       -0.45030       -0.11824
O         -5.97428        0.38599       -0.80219
O         -5.82434       -1.31786        0.64351
C         -1.57561        2.55618       -0.75369
H         -2.46280        3.06205       -1.13643
H         -0.78996        2.65777       -1.49914
C         -1.16489        3.19933        0.55040
H         -0.36246        2.66476        1.06344
H         -0.87731        4.23904        0.37973
F         -2.27098        3.19648        1.41308
F          1.61473       -2.94752        0.56688
