52
id_755_cb.log	Energy: -865158.2870539
C         -0.94614        1.50866        1.57831
H         -1.64404        0.70423        1.84069
H         -1.43169        2.47733        1.70998
H         -0.05834        1.44551        2.21773
O         -0.57228        1.42569        0.20016
C          0.00362        0.21893       -0.11217
C          1.41169        0.08784       -0.09484
C          1.99571       -1.19225       -0.16482
C          1.15972       -2.30443       -0.36679
H          1.58804       -3.29716       -0.45561
C         -0.18740       -2.13742       -0.48678
C         -0.84323       -0.88418       -0.34982
N         -2.20421       -0.77036       -0.42251
C         -2.92737        0.44602       -0.82827
H         -2.88032        1.22522       -0.06072
H         -2.50252        0.85674       -1.75029
C         -4.36698       -0.04289       -1.00491
C         -5.42847        1.04931       -0.86038
H         -5.18750        1.89524       -1.51605
H         -6.38890        0.64358       -1.20480
C         -5.58542        1.51318        0.59016
H         -6.45467        2.17535        0.67877
H         -4.70824        2.09166        0.90981
C         -5.74911        0.31232        1.51800
H         -6.66951       -0.22903        1.26155
H         -5.84346        0.63796        2.55813
N         -4.63677       -0.64496        1.43353
H         -3.78012       -0.14872        1.69203
C         -4.47259       -1.14887        0.06246
C         -3.14048       -1.86549       -0.09832
H         -3.20864       -2.59377       -0.91250
H         -2.82797       -2.38448        0.81304
F         -0.94291       -3.22901       -0.76306
C          3.43826       -1.41462        0.00703
O          3.90262       -2.57433       -0.07937
C          4.20801       -0.22867        0.31118
C          3.57125        0.98780        0.28683
H          4.14706        1.89179        0.44658
N          2.25765        1.19070        0.05146
C          1.81498        2.55902       -0.19469
H          1.32989        3.02716        0.65456
C          2.65572        3.42020       -1.08762
H          2.74576        4.46529       -0.81141
H          3.54268        2.98284       -1.53518
C          1.32194        2.90670       -1.55943
H          1.33440        2.11346       -2.30154
H          0.48073        3.58894       -1.62012
C          5.69317       -0.20608        0.60448
O          6.38853       -1.21734        0.31333
O          6.15541        0.85283        1.12294
H         -4.45886       -0.51828       -1.98969
H         -5.30968       -1.82261       -0.14903
