54
id_749_ca.log	Energy: -1510361.8499826
C         -5.78126       -2.94110        2.04242
H         -5.26906       -2.25894        2.72386
H         -6.42990       -3.61495        2.60031
H         -5.05196       -3.51076        1.46305
O         -6.66013       -2.21608        1.17198
C         -6.12297       -1.31017        0.34375
C         -6.98339       -0.61725       -0.49774
H         -8.05274       -0.78416       -0.50363
C         -6.36775        0.31003       -1.33333
N         -5.05173        0.52518       -1.34387
C         -4.34620       -0.21129       -0.48400
N         -4.80034       -1.11618        0.36891
N         -2.97703        0.06393       -0.52637
H         -2.72947        0.81895       -1.16109
C         -1.95597       -0.58737        0.11083
O         -2.04276       -1.58106        0.80951
N         -0.71254        0.00808       -0.17192
H         -0.70974        1.01890       -0.33775
S          0.61507       -0.50472        0.73174
O          0.44427       -0.19466        2.14983
O          0.88295       -1.88811        0.35783
C          1.91062        0.53066        0.07175
C          2.75391       -0.05316       -0.86185
H          2.55839       -1.06194       -1.21833
C          3.88055        0.64705       -1.30807
C          4.14160        1.91523       -0.79566
H          5.02629        2.45448       -1.12331
C          3.28994        2.49531        0.14580
H          3.49708        3.48546        0.54051
C          2.15921        1.81494        0.58273
C          1.25286        2.50575        1.55221
O          1.63516        3.07481        2.55281
O         -0.01360        2.45202        1.15494
C         -1.00462        2.93486        2.08047
H         -0.90144        2.40800        3.03113
H         -1.96363        2.71139        1.61637
H         -0.88448        4.01005        2.22268
C          4.83491       -0.00523       -2.28182
H          4.31672       -0.25313       -3.21140
H          5.64930        0.67805       -2.52588
N          5.42063       -1.27209       -1.81495
H          4.76115       -2.05253       -1.78425
S          6.40080       -1.27017       -0.48099
O          7.26101       -0.08847       -0.60484
O          7.02153       -2.59810       -0.43970
C          5.42468       -1.10832        0.99950
H          6.10972       -1.26883        1.83632
H          4.99430       -0.10708        1.04628
H          4.64861       -1.87741        0.98639
O         -7.15442        1.00870       -2.16250
C         -6.54165        1.97208       -3.02878
H         -7.36448        2.40672       -3.59445
H         -5.83494        1.48531       -3.70384
H         -6.03529        2.74384       -2.44566
