22
id_79_ca.log	Energy: -266839.5178066
C          2.73113       -0.21496       -1.25812
H          2.30622        0.22370       -2.16732
H          2.56170       -1.29782       -1.29116
H          3.81339       -0.04386       -1.26765
C          2.10273        0.39372        0.00007
H          2.31372        1.47053        0.00028
C          2.73118       -0.21545        1.25801
H          2.56178       -1.29833        1.29062
H          2.30629        0.22283        2.16740
H          3.81344       -0.04433        1.26757
C          0.59426        0.23304        0.00006
C          0.00150       -1.03609       -0.00007
H          0.62802       -1.92563       -0.00016
C         -1.38302       -1.19286       -0.00011
H         -1.83000       -2.18430       -0.00021
C         -2.20284       -0.06342       -0.00001
C         -1.63987        1.21055        0.00012
H         -2.28865        2.08196        0.00019
C         -0.25189        1.34671        0.00015
H          0.18098        2.34483        0.00026
O         -3.57749       -0.15367       -0.00003
H         -3.84602       -1.08762       -0.00015
