27
id_715_ca.log	Energy: -480007.3555685
C          2.91234       -2.07054        0.15519
H          3.60443       -2.89095        0.32113
C          3.41164       -0.79794       -0.13582
H          4.48442       -0.64056       -0.19417
C          2.53985        0.27644       -0.34895
H          2.92224        1.27062       -0.57016
C          1.17730        0.03753       -0.27198
C          0.66953       -1.23727        0.01586
C          1.53597       -2.30410        0.23469
H          1.15427       -3.29627        0.45989
C         -0.80376       -1.16796        0.01061
C         -1.76566       -2.15015        0.22774
H         -1.47753       -3.17200        0.45902
C         -3.11394       -1.79193        0.13884
H         -3.87933       -2.54479        0.30318
C         -3.49218       -0.47993       -0.16061
H         -4.54571       -0.22539       -0.22650
C         -2.52464        0.50895       -0.37239
H         -2.81249        1.53260       -0.59870
C         -1.18998        0.14736       -0.28397
C          0.03265        1.03028       -0.47196
C          0.12692        2.12370        0.59705
O          0.39579        3.27777        0.33834
O         -0.07127        1.66030        1.82965
H          0.05697        2.38197        2.47707
O          0.00754        1.63255       -1.74763
H          0.74002        2.27326       -1.79946
