49
id_719_ca.log	Energy: -816878.4663585
C         -5.96713       -1.48595        1.15542
H         -6.97933       -1.59092        0.75367
H         -5.60257       -2.47901        1.43726
H         -6.01888       -0.87185        2.06302
C         -5.04520       -0.84413        0.13241
C         -3.61847       -0.77755        0.67444
H         -3.24069       -1.78343        0.86800
H         -3.62824       -0.22850        1.63345
N         -2.73341       -0.08941       -0.27419
C         -3.19955        1.26205       -0.57670
H         -2.53311        1.71524       -1.31487
H         -3.20826        1.89809        0.32318
C         -4.61619        1.17358       -1.13457
H         -4.98883        2.18470       -1.32218
H         -4.59892        0.63955       -2.09147
N         -5.55570        0.48311       -0.24444
H         -5.62710        1.03099        0.61743
C         -1.37525       -0.39085       -0.22686
C         -0.96333       -1.71405       -0.50969
C          0.33919       -2.11905       -0.49127
H          0.59486       -3.15346       -0.69315
C          1.35071       -1.17669       -0.24381
C          1.00775        0.16892       -0.01840
C         -0.36038        0.53295        0.06645
O         -0.71450        1.78087        0.50125
C         -1.01878        1.81324        1.90038
H         -1.29027        2.84444        2.13096
H         -0.14141        1.51630        2.48613
H         -1.85752        1.14630        2.12934
N          2.04079        1.10179        0.16755
C          3.30631        0.67717        0.27432
H          4.03217        1.46005        0.45675
C          3.71490       -0.63476        0.14501
C          2.74389       -1.65195       -0.19054
O          3.01229       -2.84752       -0.40630
C          5.14141       -0.94761        0.30023
O          5.64832       -2.04979        0.16486
O          5.89090        0.12688        0.62527
H          6.81851       -0.16454        0.71026
C          1.81333        2.54566        0.11719
H          1.44951        2.96172        1.04958
C          2.73908        3.37759       -0.71673
H          3.00665        4.34994       -0.31755
H          3.52334        2.87611       -1.27494
C          1.32045        3.13889       -1.15886
H          1.17353        2.45714       -1.99172
H          0.59471        3.94092       -1.07813
F         -1.92037       -2.61487       -0.82299
H         -5.02904       -1.45260       -0.78157
