41
id_767_cb.log	Energy: -696512.4013239
C          0.90080        3.40854       -0.94027
H          0.09570        2.86886       -1.44781
H          1.78998        3.38889       -1.57797
H          0.58912        4.44931       -0.81238
C          1.21690        2.80801        0.42102
H          0.36386        2.85757        1.10006
H          2.03441        3.35095        0.89662
N          1.65510        1.40269        0.32082
C          2.97483        1.13686        0.30828
H          3.61908        1.99926        0.44508
C          3.53461       -0.10679        0.13409
C          2.66832       -1.25048       -0.01378
O          3.05482       -2.43809       -0.10439
C          1.23078       -0.94072       -0.02815
C          0.74533        0.37039        0.12393
C         -0.64243        0.62248        0.09645
H         -1.01019        1.63048        0.22931
C         -1.55416       -0.40494       -0.10224
C         -1.03037       -1.70977       -0.26793
C          0.30516       -1.98397       -0.22342
H          0.65479       -3.00121       -0.36613
F         -1.89688       -2.71787       -0.52163
N         -2.94348       -0.20504       -0.19952
C         -3.37535        1.18933       -0.29156
H         -3.20683        1.72515        0.65723
H         -2.81158        1.69651       -1.07795
C         -4.84426        1.25950       -0.65913
H         -5.04202        0.78400       -1.62139
H         -5.19111        2.29255       -0.67721
N         -5.65531        0.52294        0.36017
H         -6.64614        0.54074        0.09426
H         -5.57956        1.00140        1.26751
C         -5.19244       -0.89209        0.50823
H         -5.77759       -1.35248        1.30437
H         -5.39501       -1.39253       -0.44054
C         -3.71647       -0.90235        0.84373
H         -3.39579       -1.94019        0.92438
H         -3.55078       -0.41503        1.81810
C          5.04563       -0.18069        0.10486
O          5.58520       -1.12377       -0.53639
O          5.67699        0.73592        0.70630
