9
id_781_ca.log	Energy: -190826.2167983
C          1.79041       -0.42940        0.00470
H          1.76261       -1.49568       -0.21952
H          2.40846        0.09959       -0.72347
H          2.21516       -0.27542        1.00132
C          0.42497        0.16769       -0.00942
O          0.13320        1.34562       -0.00193
O         -0.53782       -0.78816       -0.01338
O         -1.84505       -0.24340        0.01156
H         -1.68121        0.72926       -0.00001
