45
id_708_ca.log	Energy: -845918.4371652
C         -6.96216        0.14821       -0.23717
H         -7.02719       -0.70026       -0.91926
H         -7.34238        1.05220       -0.71203
H         -7.50447       -0.05866        0.68509
N         -5.52765        0.35814        0.09729
C         -4.72123        0.68422       -1.12265
H         -4.83050       -0.16370       -1.80215
H         -5.15560        1.57891       -1.57061
C         -3.27003        0.91824       -0.74379
H         -3.20280        1.80262       -0.09498
H         -2.71021        1.11495       -1.65941
N         -2.75076       -0.28196       -0.09386
C         -3.49051       -0.58145        1.13537
H         -3.09244       -1.48027        1.60560
H         -3.40163        0.24945        1.85187
C         -4.95038       -0.82793        0.80955
H         -5.53677       -0.98096        1.71648
H         -5.07000       -1.68115        0.13772
C         -1.37291       -0.52065       -0.05722
C         -0.91839       -1.84886        0.08460
C          0.40532       -2.18199        0.10262
H          0.71098       -3.21483        0.22092
C          1.37530       -1.18417       -0.06729
C          0.98918        0.15683       -0.24270
C         -0.38911        0.45223       -0.18855
F         -0.79829        1.73404       -0.23484
N          1.97700        1.12909       -0.44031
C          3.27028        0.77766       -0.37501
H          3.96843        1.59582       -0.50044
C          3.73385       -0.50339       -0.18575
C          2.79515       -1.59452       -0.03944
O          3.10221       -2.78383        0.10511
C          5.18544       -0.73802       -0.14976
O          5.72316       -1.81012        0.05394
O          5.90595        0.38110       -0.36913
H          6.84936        0.13758       -0.31779
C          1.69200        2.56898       -0.61035
H          2.55882        2.99699       -1.11458
H          0.82942        2.70815       -1.25521
C          1.50841        3.24504        0.72884
H          0.70088        2.79420        1.31000
H          1.31339        4.31075        0.58520
F          2.68999        3.09738        1.44644
F         -1.84891       -2.80719        0.20946
H         -5.46421        1.16367        0.73511
