49
id_720_cb.log	Energy: -816855.6315086
C         -5.94802       -1.56141        1.08418
H         -5.57988       -2.55322        1.36330
H         -6.02716       -0.95873        1.99675
H         -6.94885       -1.66947        0.65767
C         -5.01023       -0.89624        0.09131
C         -3.60281       -0.79337        0.67549
H         -3.65601       -0.24162        1.63105
H         -3.20445       -1.78735        0.88428
N         -2.71028       -0.08833       -0.25151
C         -3.19695        1.24876       -0.57975
H         -2.52162        1.70848       -1.30481
H         -3.24183        1.89544        0.31120
C         -4.59715        1.12073       -1.17189
H         -4.53813        0.57753       -2.12158
H         -4.98783        2.12021       -1.38289
N         -5.54489        0.41578       -0.30322
H         -5.62963        0.96271        0.55824
C         -1.35199       -0.37536       -0.19935
C         -0.93354       -1.70118       -0.46809
C          0.37235       -2.08990       -0.44330
H          0.64238       -3.12237       -0.63156
C          1.37279       -1.13133       -0.21097
C          1.02119        0.21658        0.00298
C         -0.35100        0.56589        0.07696
O         -0.72616        1.81538        0.49066
C         -1.04955        1.85464        1.88357
H         -0.17486        1.58698        2.48662
H         -1.87387        1.16918        2.11062
H         -1.35114        2.88032        2.09978
N          2.04516        1.15923        0.18564
C          3.31662        0.74788        0.28466
H          4.04910        1.52696        0.46167
C          3.72284       -0.55838        0.15448
C          2.76129       -1.57595       -0.15812
O          3.07214       -2.77718       -0.35470
C          5.16587       -0.85162        0.28751
O          6.00446       -0.00731        0.55761
O          5.52211       -2.12247        0.09304
H          4.69668       -2.64926       -0.12038
C          1.80078        2.60043        0.15911
H          1.43243        2.99528        1.09871
C          1.30397        3.21132       -1.10609
H          1.16220        2.54380       -1.95047
H          0.57012        4.00346       -1.01041
C          2.71815        3.45539       -0.65994
H          2.97775        4.42225       -0.24404
H          3.50685        2.96991       -1.22512
F         -1.88392       -2.60797       -0.75265
H         -4.94509       -1.50412       -0.82046
