53
id_749_cb.log	Energy: -1510083.6640096
C          5.97261       -1.20841       -3.21540
H          5.50863       -0.23466       -3.38479
H          6.67727       -1.43396       -4.01478
H          5.20523       -1.98318       -3.15861
O          6.76083       -1.19060       -2.01906
C          6.13951       -0.93086       -0.85641
C          6.91835       -0.91663        0.29340
H          7.98402       -1.10477        0.28179
C          6.21745       -0.64111        1.46449
N          4.90877       -0.40785        1.50045
C          4.27536       -0.45218        0.31802
N          4.82505       -0.70243       -0.86727
N          2.92073       -0.20071        0.41899
H          2.60291       -0.02238        1.36533
C          1.91976       -0.18724       -0.55424
O          2.15075       -0.39498       -1.75306
N          0.71672        0.08121        0.02208
S         -0.53179        0.13789       -0.98605
O         -0.46394        1.22994       -1.98567
O         -0.87789       -1.18532       -1.55464
C         -1.87052        0.56688        0.12641
C         -2.59991       -0.47202        0.68683
H         -2.31731       -1.50177        0.47977
C         -3.71922       -0.19720        1.47798
C         -4.09506        1.12821        1.68896
H         -4.97611        1.34966        2.28546
C         -3.36364        2.17077        1.12167
H         -3.66487        3.20224        1.27983
C         -2.23970        1.90011        0.34359
C         -1.49837        3.07160       -0.22483
O         -2.01742        3.90769       -0.93955
O         -0.24280        3.12922        0.19833
C          0.56506        4.17971       -0.35909
H          0.59342        4.08230       -1.44652
H          1.55710        4.03781        0.06525
H          0.16047        5.15294       -0.07530
C         -4.55285       -1.33310        2.02439
H         -3.94932       -1.97509        2.67058
H         -5.37981       -0.94363        2.62008
N         -5.11026       -2.23412        1.00053
H         -4.41801       -2.84116        0.55662
S         -6.17516       -1.63264       -0.11392
O         -7.08317       -0.74635        0.62221
O         -6.73144       -2.80138       -0.80490
C         -5.31611       -0.66981       -1.34147
H         -6.05280       -0.43882       -2.11566
H         -4.93724        0.24755       -0.88896
H         -4.50636       -1.27756       -1.75231
O          6.92194       -0.61551        2.60783
C          6.22268       -0.34030        3.82702
H          6.98473       -0.37487        4.60459
H          5.46036       -1.09980        4.01221
H          5.76443        0.65018        3.79195
