41
id_753_ca.log	Energy: -1045017.3719527
C          5.50439        2.71256       -1.56453
H          4.97825        3.63693       -1.31314
H          6.54265        2.77253       -1.23782
H          5.47978        2.60168       -2.65442
C          4.81667        1.54391       -0.94247
N          3.48398        1.48299       -1.06582
C          2.91871        0.41127       -0.51005
N          3.55139       -0.56361        0.13525
C          4.86856       -0.39613        0.18596
N          5.56119        0.62626       -0.32485
O          5.61375       -1.30978        0.79572
C          4.95635       -2.45316        1.36434
H          4.42993       -3.01118        0.58810
H          4.26042       -2.14008        2.14445
H          5.75800       -3.05493        1.78883
N          1.54109        0.36865       -0.64207
H          1.14985        1.16649       -1.13737
C          0.67960       -0.62681       -0.24116
O          0.98490       -1.67092        0.30147
N         -0.64839       -0.32485       -0.57408
H         -0.90462        0.66553       -0.62424
S         -1.85881       -1.27333        0.12727
O         -1.85537       -1.13036        1.58191
O         -1.73296       -2.61243       -0.43375
C         -3.32754       -0.50523       -0.52835
C         -3.92999       -1.13650       -1.61100
H         -3.46288       -2.00282       -2.06752
C         -5.15082       -0.65458       -2.08377
H         -5.62319       -1.13880       -2.93188
C         -5.76495        0.42512       -1.45686
H         -6.72134        0.79124       -1.81587
C         -5.15847        1.04390       -0.36298
H         -5.63082        1.89052        0.12574
C         -3.92615        0.59559        0.10297
C         -3.29508        1.33996        1.23708
O         -3.87890        1.64870        2.25467
O         -2.03319        1.65814        0.96922
C         -1.27240        2.24361        2.04164
H         -1.29522        1.58036        2.90868
H         -1.68473        3.22135        2.29601
H         -0.25919        2.34062        1.65606
