36
id_729_cb.log	Energy: -881244.1895561
C          1.84970       -2.21090       -1.16016
H          2.07603       -1.88471       -2.18068
H          2.38424       -3.15133       -0.98267
C          0.34851       -2.46632       -1.02134
H          0.11383       -2.93738       -0.06246
H          0.03841       -3.15878       -1.81207
C         -0.44931       -1.19151       -1.18971
O         -0.14364       -0.33848       -2.04043
N         -1.48871       -1.01267       -0.36085
H         -1.78797       -1.76435        0.25505
C         -2.28786        0.19354       -0.38074
C         -3.42593        0.09137        0.64969
H         -3.99776        1.02190        0.57674
H         -2.97347        0.06790        1.64943
S         -4.51074       -1.36364        0.41122
C         -1.44394        1.42508       -0.05871
O         -1.79089        2.54414       -0.46866
N         -0.38553        1.25354        0.75108
H         -0.04464        0.31410        0.97801
C          0.45878        2.36485        1.09639
H         -0.12582        3.19724        1.49915
H          1.16318        2.04803        1.87137
C          1.26877        2.87696       -0.07666
O          1.37532        2.33053       -1.15433
O          1.88808        4.02314        0.23144
H          2.42069        4.31963       -0.53270
C          2.38369       -1.14970       -0.19326
C          2.09275       -1.50884        1.27311
O          1.01204       -1.07529        1.74829
O          2.93910       -2.23174        1.85452
N          3.86542       -1.07348       -0.36653
H          4.29687       -1.92544        0.01529
H          4.26136       -0.27488        0.14224
H          4.12599       -0.98280       -1.35542
H         -2.70997        0.35274       -1.37939
H          1.98143       -0.16096       -0.42574
