31
id_716_cb.log	Energy: -1585725.4781359
C         -3.43472        0.34670       -0.78606
H         -4.17693        0.26813       -1.57180
C         -2.62078        1.46208       -0.68492
H         -2.72758        2.27479       -1.39517
C         -1.64596        1.58753        0.32612
C         -1.54232        0.52292        1.25270
C         -2.34795       -0.60117        1.18073
H         -2.24485       -1.40925        1.89583
C         -3.28273       -0.67065        0.15273
N         -4.12694       -1.85019        0.06317
O         -4.94638       -1.91267       -0.84467
O         -3.98601       -2.73638        0.89664
Cl        -0.34407        0.59337        2.51545
N         -0.84508        2.71770        0.45352
S          0.28456        2.90566       -0.62814
O          1.01883        4.15232       -0.33200
O         -0.16089        2.75977       -2.03709
C          1.43148        1.55095       -0.37009
C          2.56072        1.73057        0.42034
H          2.82225        2.71697        0.79059
C          3.35597        0.63405        0.74044
H          4.24601        0.75794        1.34835
C          2.99810       -0.63104        0.28720
C          1.85968       -0.81230       -0.50560
C          1.07824        0.28955       -0.84184
H          0.19737        0.15751       -1.46287
C          1.44889       -2.17866       -0.98601
F          0.32576       -2.13537       -1.71866
F          2.39034       -2.75826       -1.75371
F          1.20997       -3.02201        0.03670
Cl         4.00550       -1.98018        0.72997
