41
id_736_ca.log	Energy: -972084.1300034
C         -1.22311       -3.44779       -0.45975
H         -2.16702       -3.80876       -0.04562
H         -0.41389       -3.77911        0.19799
H         -1.07052       -3.91206       -1.43789
C         -1.26442       -1.95880       -0.54777
C         -2.32819       -1.12189       -0.38626
C         -1.84431        0.23630       -0.46628
C         -2.52351        1.46338       -0.39910
H         -3.59537        1.48361       -0.23049
C         -1.77829        2.62277       -0.57079
C         -0.39227        2.56276       -0.82330
H          0.14555        3.49351       -0.97613
C          0.28084        1.35272       -0.88619
H          1.34301        1.34177       -1.10349
C         -0.45752        0.18363       -0.67080
N         -0.09724       -1.18039       -0.71065
C          1.17343       -1.70670       -0.94160
O          1.31833       -2.76762       -1.53139
C          2.33708       -0.95394       -0.40015
C          3.51747       -0.92052       -1.14608
H          3.55336       -1.39540       -2.12208
C          4.63891       -0.26352       -0.65047
H          5.55531       -0.21585       -1.22941
C          4.56435        0.32966        0.60730
C          3.40407        0.28633        1.37680
H          3.37641        0.74535        2.35943
C          2.28197       -0.35239        0.86069
H          1.36872       -0.38733        1.44801
Cl         5.97009        1.14785        1.24265
O         -2.30825        3.88618       -0.52760
C         -3.70706        3.99550       -0.29418
H         -3.97507        3.56324        0.67582
H         -4.27459        3.50090       -1.08962
H         -3.92819        5.06263       -0.29421
C         -3.75717       -1.48776       -0.13707
H         -3.92797       -2.55565       -0.31763
H         -4.42740       -0.93614       -0.80259
C         -4.21945       -1.21888        1.27619
O         -5.32206       -0.79525        1.56958
O         -3.30215       -1.53343        2.19965
H         -3.67716       -1.37575        3.08836
