49
id_724_ca.log	Energy: -861156.8508931
C          5.29455        3.36176       -0.21566
H          6.04578        3.19341        0.56140
H          4.80248        4.32151       -0.05542
H          5.76639        3.34385       -1.20196
O          4.26163        2.38571       -0.13396
N          4.80262        1.12184       -0.32156
C          3.89521        0.22815       -0.27481
C          2.43121        0.45125       -0.05817
H          2.00318        1.04446       -0.87796
H          2.23978        0.99344        0.87298
N          1.88754       -0.90634       -0.01935
C          2.83975       -1.89603       -0.55874
H          2.77661       -2.83293       -0.00694
H          2.63354       -2.09413       -1.61529
C          4.21791       -1.24055       -0.39379
C          4.92222       -1.74640        0.86496
H          5.07221       -2.82480        0.82135
H          4.36702       -1.48932        1.76859
N          6.27248       -1.11814        0.97939
H          6.20582       -0.09221        0.90019
H          6.89092       -1.44548        0.22758
C          0.53597       -1.05111       -0.05767
C         -0.11442       -2.30801       -0.23919
C         -1.47137       -2.39053       -0.24960
H         -1.95790       -3.35030       -0.38796
C         -2.23793       -1.22161       -0.07412
C         -3.70096       -1.27933       -0.06192
O         -4.29905       -2.35384       -0.21587
C         -4.33779        0.01210        0.14645
C         -3.57052        1.14412        0.30056
H         -4.03412        2.10931        0.46419
N         -2.22743        1.16204        0.26588
C         -1.52486       -0.03188        0.09607
N         -0.19381        0.05172        0.11242
C         -1.49784        2.40239        0.46866
H         -1.05396        2.47359        1.45574
C         -2.00545        3.65406       -0.17437
H         -2.88478        3.58385       -0.80620
H         -1.92800        4.56495        0.40793
C         -0.75004        2.99930       -0.67779
H          0.21076        3.45087       -0.45668
H         -0.81504        2.47970       -1.62793
C         -5.80281        0.13504        0.19495
O         -6.59397       -0.78668        0.12055
O         -6.22334        1.41012        0.33244
H         -7.19843        1.39253        0.36447
F          0.62247       -3.42134       -0.39759
H          4.85072       -1.43940       -1.26317
H          6.71580       -1.34746        1.87577
