37
id_728_ca.log	Energy: -881527.2616691
C          1.78308       -2.15032       -1.15103
H          1.95271       -1.88813       -2.20048
H          2.37211       -3.04823       -0.93475
C          0.29922       -2.46103       -0.93803
H          0.11530       -2.89222        0.04950
H         -0.01253       -3.20305       -1.68193
C         -0.55481       -1.23059       -1.14383
O         -0.35523       -0.43868       -2.07466
N         -1.54865       -1.01344       -0.25196
H         -1.60194       -1.59914        0.57722
C         -2.27806        0.23976       -0.27724
C         -3.39555        0.25076        0.76099
H         -3.86198        1.23790        0.76152
H         -2.98864        0.04541        1.75510
S         -4.64551       -1.01653        0.32933
H         -5.46139       -0.75453        1.36415
C         -1.34758        1.43160       -0.02388
O         -1.55787        2.52546       -0.57542
N         -0.33324        1.23305        0.82483
H         -0.11700        0.28665        1.14401
C          0.64302        2.26185        1.14026
H          1.18655        1.96085        2.03464
H          0.13240        3.21198        1.32979
C          1.64562        2.46308        0.01251
O          2.84509        2.33040        0.15120
O          1.14112        2.79826       -1.17826
H          0.16129        2.90704       -1.13257
C          2.32330       -0.97711       -0.31484
C          2.13756       -1.27253        1.16590
O          1.07306       -1.15528        1.75239
O          3.21934       -1.71396        1.79688
H          3.95940       -1.66414        1.13837
N          3.74695       -0.78200       -0.57696
H          3.95676       -1.01181       -1.54680
H          3.98814        0.19999       -0.44287
H         -2.69254        0.39702       -1.27765
H          1.72513       -0.08674       -0.53967
