15
id_76_cb.log	Energy: -430102.0923064
C         -2.56663       -1.30640       -0.15869
H         -3.27271       -1.19721       -0.98684
H         -3.14214       -1.50930        0.74912
H         -1.90022       -2.14754       -0.36010
C         -1.82490       -0.00769        0.02043
O         -2.44314        1.05504        0.24472
N         -0.49391       -0.05092       -0.08000
H         -0.01509       -0.94756       -0.14857
C          0.37543        1.09723        0.12613
H         -0.07646        1.96611       -0.36379
H          0.45100        1.31602        1.19947
C          1.75851        0.81480       -0.45265
H          1.67043        0.76180       -1.54510
H          2.38721        1.68222       -0.22530
S          2.52787       -0.72475        0.19200
