19
id_778_cb.log	Energy: -501960.5970268
C          0.73322        1.87146       -0.33095
H         -0.18893        2.38743       -0.03884
H          0.83433        1.92813       -1.42013
H          1.57815        2.40268        0.11808
C          0.74194        0.41719        0.14741
C          0.50257        0.39448        1.66282
H         -0.43247        0.90604        1.92856
H          1.32601        0.91011        2.16610
H          0.46075       -0.62677        2.05912
C         -0.39288       -0.35443       -0.59162
C         -1.81740        0.05167       -0.16559
O         -2.29923        1.07740       -0.70837
O         -2.38007       -0.66880        0.70313
N         -0.23575       -1.81430       -0.33284
H         -0.68409       -2.38322       -1.05661
H         -0.66664       -2.05478        0.56807
H          0.78982       -2.00338       -0.31160
S          2.35862       -0.38192       -0.26916
H         -0.27498       -0.20654       -1.66681
