40
id_766_cb.log	Energy: -696223.7884653
C         -0.85495        3.38722        1.02799
H         -0.04653        2.83734        1.51889
H         -1.74011        3.35408        1.67069
H         -0.54388        4.43045        0.92020
C         -1.17928        2.81595       -0.34407
H         -0.32963        2.88088       -1.02620
H         -2.00025        3.36874       -0.80194
N         -1.61723        1.40906       -0.27078
C         -2.93448        1.13895       -0.29838
H         -3.57631        1.99891       -0.45695
C         -3.49928       -0.10642       -0.14236
C         -2.63413       -1.24307        0.06662
O         -3.01590       -2.42821        0.20195
C         -1.19672       -0.93231        0.08764
C         -0.70748        0.37603       -0.07006
C          0.68013        0.62607       -0.05209
H          1.04770        1.63282       -0.19247
C          1.59693       -0.40168        0.13605
C          1.06639       -1.70405        0.31585
C         -0.27016       -1.97486        0.28554
H         -0.61969       -2.99090        0.43662
F          1.92764       -2.71678        0.57268
N          2.98353       -0.20345        0.20254
C          3.42428        1.19260        0.26477
H          3.20471        1.71306       -0.68414
H          2.88427        1.70283        1.06819
C          4.92231        1.25674        0.53492
H          5.23314        2.30458        0.55345
H          5.13078        0.82872        1.52211
N          5.73059        0.53511       -0.45280
H          5.59080        0.99258       -1.35595
C          5.23343       -0.83877       -0.57576
H          5.76840       -1.34119       -1.38602
H          5.46259       -1.36886        0.35600
C          3.73852       -0.92097       -0.84630
H          3.42543       -1.96486       -0.88076
H          3.51471       -0.46263       -1.82500
C         -5.00946       -0.18191       -0.20647
O         -5.58615       -1.18450        0.29694
O         -5.60912        0.78922       -0.75475
