19
id_835_cb.log	Energy: -252385.5437959
C          1.61241        0.59769        1.10297
H          1.52247        1.68809        1.12793
H          2.63812        0.34428        1.38877
H          0.94202        0.17879        1.86203
C          1.30302        0.02697       -0.28090
H          1.98066        0.49254       -1.00632
C          1.53257       -1.48349       -0.30254
H          0.95237       -1.98586        0.47911
H          2.58946       -1.70215       -0.12210
H          1.25269       -1.92006       -1.26702
C         -0.10999        0.41397       -0.77285
C         -1.16617       -0.20408        0.12773
O         -1.64263        0.34678        1.10083
O         -1.52185       -1.44103       -0.24558
H         -2.16796       -1.78401        0.40248
N         -0.24520        1.86389       -0.85623
H         -0.31653        2.22496        0.09534
H         -1.14745        2.07264       -1.28281
H         -0.24463       -0.00880       -1.77226
