21
id_808_ca.log	Energy: -266219.6762900
C         -3.56931       -0.43458        0.14821
H         -4.19319       -0.62470        1.02753
H         -3.38147       -1.39448       -0.34640
H         -4.14278        0.19301       -0.54347
C         -2.25706        0.23994        0.53522
H         -1.70220       -0.39321        1.23767
H         -2.45980        1.18673        1.05098
C         -1.37622        0.51195       -0.69541
H         -1.92889        1.16627       -1.38016
H         -1.18313       -0.43070       -1.21435
C         -0.09719        1.19925       -0.32075
H         -0.15307        2.28773       -0.27513
C          1.10076        0.66492       -0.02028
C          2.29838        1.51644        0.31546
H          3.09022        1.40089       -0.43208
H          2.72403        1.24018        1.28592
H          2.00979        2.56983        0.35072
C          1.30093       -0.80582       -0.02559
O          0.42620       -1.65754       -0.00220
O          2.60446       -1.14659       -0.04202
H          2.67339       -2.12115       -0.02863
