27
id_866_ca.log	Energy: -594370.3909636
C          4.85691        0.17498       -0.01990
H          5.94251        0.20731       -0.02824
C          4.17552       -0.68592       -0.88200
H          4.72866       -1.32045       -1.56825
C          2.78343       -0.73354       -0.87113
H          2.25884       -1.39671       -1.55255
C          2.05658        0.08829        0.00034
C          2.74537        0.95296        0.85959
H          2.18709        1.58811        1.54287
C          4.13884        0.99426        0.85068
H          4.66106        1.66532        1.52629
C          0.56985        0.09786       -0.00779
C         -0.11149        1.30056       -0.06969
H          0.44225        2.23143       -0.13009
C         -1.50911        1.32155       -0.07357
C         -2.26139        0.17013       -0.01911
H         -3.34412        0.19375       -0.03022
C         -1.58097       -1.04100        0.05388
C         -0.16816       -1.11280        0.06806
O          0.52434       -2.24306        0.16583
H         -0.09074       -3.00669        0.22104
N         -2.39443       -2.24001        0.12253
O         -3.60576       -2.13072        0.09224
O         -1.82797       -3.33142        0.20894
N         -2.19853        2.60252       -0.14950
O         -1.52086        3.61873       -0.18918
O         -3.42064        2.60351       -0.16887
