27
id_886_ca.log	Energy: -409651.9942460
C          2.75484       -1.81695       -0.56167
H          3.04290       -2.82439       -0.84582
C          3.51678       -0.72247       -0.97341
H          4.40399       -0.86821       -1.58256
C          3.14400        0.56720       -0.60223
H          3.72630        1.43151       -0.91240
C          2.00435        0.75466        0.17860
C          1.22372       -0.32456        0.60680
C          1.62112       -1.60820        0.22206
H          1.02332       -2.45634        0.55027
C         -0.02677       -0.11693        1.43938
H          0.03271        0.83276        1.98154
H         -0.07222       -0.90829        2.19382
C         -1.30371       -0.18262        0.62353
C         -2.06633       -1.35592        0.61357
H         -1.72112       -2.19859        1.20883
C         -3.24564       -1.46402       -0.12124
H         -3.81634       -2.38744       -0.10439
C         -3.68526       -0.37073       -0.86846
H         -4.60425       -0.43138       -1.44430
C         -2.94524        0.80779       -0.87800
H         -3.27023        1.67048       -1.45289
C         -1.76055        0.90131       -0.14384
O         -1.10434        2.10628       -0.20697
H         -0.21326        2.07540        0.19795
O          1.59567        2.01389        0.56435
H          2.14958        2.69185        0.14046
