24
id_870_cb.log	Energy: -465801.8778759
C         -4.84728        0.01380       -0.00719
H         -5.93297        0.04416       -0.01734
C         -4.12005        1.08114        0.52164
H         -4.63749        1.94351        0.93220
C         -2.72730        1.04272        0.53393
H         -2.17002        1.87085        0.96357
C         -2.03781       -0.06474        0.01941
C         -2.77805       -1.13504       -0.50283
H         -2.26218       -1.99657       -0.91839
C         -4.17122       -1.09376       -0.51997
H         -4.72846       -1.92703       -0.93840
C         -0.55193       -0.10396        0.02239
C          0.12745       -1.33857        0.25264
H         -0.43575       -2.24503        0.44840
C          1.49510       -1.36662        0.25796
H          2.01940       -2.29625        0.44551
C          2.25592       -0.19249        0.03336
C          1.62210        1.08636       -0.20420
C          0.17887        1.03979       -0.19595
H         -0.32016        1.98445       -0.39709
O          2.21575        2.18847       -0.41280
N          3.66148       -0.32937        0.05729
O          4.16111       -1.44924        0.27429
O          4.39344        0.65023       -0.13481
