13
id_824_cb.log	Energy: -283987.3661381
C          0.74034        1.07762        0.06782
H          1.20864        1.82956        0.70795
H          0.76187        1.46385       -0.95336
C          1.59921       -0.19659        0.12653
O          2.74654       -0.09796       -0.39377
O          1.13024       -1.21938        0.68913
N         -0.63278        0.91035        0.49969
H         -0.77634        0.90465        1.50444
C         -1.43189        0.06345       -0.21485
O         -1.17191       -0.25456       -1.38916
N         -2.53404       -0.41590        0.42907
H         -2.84767        0.03987        1.27834
H         -3.26367       -0.79063       -0.16527
