25
id_871_ca.log	Energy: -466088.2725380
C         -4.65726       -0.49806        0.04228
H         -5.71617       -0.73766        0.07137
C         -4.19392        0.70275        0.58073
H         -4.88991        1.40022        1.03793
C         -2.83506        1.01031        0.54413
H         -2.48431        1.93927        0.98601
C         -1.91703        0.12222       -0.03391
C         -2.39272       -1.08054       -0.57449
H         -1.69947       -1.77223       -1.04581
C         -3.75114       -1.38873       -0.53466
H         -4.10248       -2.32287       -0.96335
C         -0.46931        0.45104       -0.06814
C         -0.02825        1.78134       -0.23532
H         -0.75739        2.57614       -0.36434
C          1.31402        2.10341       -0.26158
H          1.64334        3.12856       -0.39741
C          2.29644        1.11303       -0.12510
C          1.85616       -0.21541        0.03452
C          0.49313       -0.53723        0.06637
H          0.21129       -1.57373        0.21531
N          2.79893       -1.29872        0.18433
O          2.38255       -2.43398        0.34768
O          4.00668       -1.04285        0.13810
O          3.57868        1.51750       -0.15839
H          4.16891        0.74330       -0.05813
