17
id_802_ca.log	Energy: -449434.8986956
C          0.00935       -0.90340        0.00000
H          0.01730       -1.98546        0.00001
C          1.17646       -0.15411        0.00000
C          1.20479        1.23166       -0.00001
H          2.14022        1.77930       -0.00001
C         -0.01140        1.91686       -0.00002
C         -1.21711        1.21549       -0.00001
H         -2.16499        1.74323       -0.00001
C         -1.16704       -0.17221       -0.00000
N         -2.43742       -0.91147        0.00000
O         -2.39102       -2.13020       -0.00011
O         -3.47382       -0.26879        0.00011
O          0.04351        3.27168       -0.00003
H         -0.85202        3.65221       -0.00003
N          2.45812       -0.87409        0.00001
O          3.48488       -0.21632        0.00002
O          2.42950       -2.09338        0.00002
