22
id_831_ca.log	Energy: -360478.0558717
C          4.19900       -1.27802       -0.00000
H          3.95786       -1.86613        0.89025
H          5.27397       -1.07555        0.00001
H          3.95787       -1.86612       -0.89027
C          3.44622        0.03115        0.00000
H          3.66410        0.62814       -0.88956
H          3.66408        0.62812        0.88958
O          2.03630       -0.28617       -0.00001
C          1.18828        0.74462       -0.00000
O          1.56526        1.90774        0.00002
C         -0.23518        0.33469       -0.00000
C         -0.61903       -1.01303        0.00001
H          0.13359       -1.79446        0.00001
C         -1.96225       -1.35984        0.00001
H         -2.27285       -2.39995        0.00002
C         -2.93357       -0.35439        0.00000
C         -2.56435        0.99419       -0.00001
H         -3.33230        1.76329       -0.00002
C         -1.21781        1.33082       -0.00001
H         -0.92308        2.37576       -0.00002
O         -4.23986       -0.74714        0.00000
H         -4.82473        0.03033        0.00000
