13
id_827_ca.log	Energy: -203090.5452193
C         -1.15250        1.32145        0.41943
H         -1.08424        1.08897        1.48757
H         -2.20247        1.47809        0.15523
H         -0.60460        2.24560        0.22556
C         -0.55289        0.19743       -0.41029
C          0.91648       -0.06898       -0.04360
O          1.18904       -1.17658        0.48564
O          1.71468        0.86689       -0.29944
N         -1.34204       -1.05286       -0.18581
H         -1.29560       -1.33167        0.80127
H         -0.96613       -1.83279       -0.73552
H         -2.32737       -0.91963       -0.43908
H         -0.62158        0.41956       -1.47722
