16
id_838_cb.log	Energy: -311034.1242240
C          0.28930        1.36647        1.26701
H          1.22076        1.93441        1.19748
H          0.33068        0.74226        2.16331
H         -0.53909        2.07593        1.37002
C          0.11002        0.52702       -0.00210
C          0.20782        1.41251       -1.24824
H          1.20258        1.86653       -1.29057
H         -0.53647        2.21427       -1.20640
H          0.04691        0.83472       -2.16264
C          1.18498       -0.58706       -0.13482
O          2.29873       -0.40028        0.41631
O          0.86699       -1.58503       -0.84013
C         -1.23958       -0.16021        0.03758
O         -2.11611       -0.05912       -0.80102
O         -1.39557       -0.91519        1.13748
H         -2.27288       -1.34353        1.11110
