23
id_867_ca.log	Energy: -1951258.2000958
C         -4.21510       -1.50418        0.40853
H         -4.69376       -2.44421        0.66448
C         -4.98205       -0.37479        0.11532
H         -6.06661       -0.42719        0.13797
C         -4.36090        0.82486       -0.21605
H         -4.94038        1.70911       -0.46532
C         -2.96820        0.90631       -0.24628
C         -2.17630       -0.21260        0.06269
C         -2.82677       -1.41392        0.37649
H         -2.21994       -2.28398        0.61511
C         -0.69185       -0.14896        0.04458
C          0.04432       -1.10435       -0.66820
H         -0.47653       -1.87798       -1.22594
C          1.43561       -1.07325       -0.68093
H          1.99479       -1.81799       -1.23794
C          2.09294       -0.06911        0.02329
C          1.39223        0.89168        0.74324
H          1.91633        1.66239        1.29887
C         -0.00009        0.84394        0.75191
H         -0.54936        1.57743        1.33778
Br         3.98645       -0.01389        0.00590
O         -2.43551        2.11777       -0.61399
H         -1.46916        2.05267       -0.70723
