27
id_880_ca.log	Energy: -669522.7321211
C          3.38354       -1.43849        0.07082
H          4.10735       -2.20581        0.32835
C          3.33049       -0.25316        0.80528
H          4.01562       -0.09283        1.63229
C          2.41066        0.74062        0.47344
H          2.37632        1.67450        1.02544
C          1.52923        0.52940       -0.58666
C          1.57041       -0.65622       -1.32335
H          0.86848       -0.80590       -2.14051
C          2.50873       -1.63412       -0.99908
H          2.54671       -2.55332       -1.57588
N          0.56262        1.54075       -0.91275
H          0.21796        1.45313       -1.87305
S         -0.76434        1.64911        0.10775
O         -0.26738        2.03027        1.42765
O         -1.70782        2.52655       -0.58573
C         -1.44205        0.01384        0.21590
C         -2.29726       -0.41878       -0.79688
H         -2.59904        0.25500       -1.59366
C         -2.75744       -1.73252       -0.75974
H         -3.43053       -2.08769       -1.53352
C         -2.35375       -2.58701        0.26824
H         -2.71517       -3.61063        0.29007
C         -1.49009       -2.13678        1.26718
H         -1.17864       -2.80495        2.06376
C         -1.02082       -0.82457        1.24665
H         -0.34621       -0.46035        2.01562
