20
id_812_ca.log	Energy: -474090.4453279
C          0.02619        3.57486       -0.09488
H         -0.98342        3.97899        0.00737
H          0.44414        3.92526       -1.04409
H          0.64730        3.97741        0.71080
C          0.00507        2.07209       -0.04894
C          1.19649        1.34197       -0.02284
H          2.15338        1.85569       -0.02660
C          1.18568       -0.04350       -0.01093
C         -0.00161       -0.80368        0.00335
C         -1.18822       -0.03951       -0.00016
C         -1.18324        1.35718       -0.03396
H         -2.13469        1.87801       -0.04317
N         -2.48036       -0.69485        0.04060
O         -2.51693       -1.92709        0.09536
O         -3.48806       -0.01283        0.02056
O          0.06162       -2.13125        0.05628
H         -0.84994       -2.49381        0.10192
N          2.48239       -0.71327       -0.00324
O          2.58964       -1.79762       -0.55177
O          3.41210       -0.13386        0.53988
