33
id_894_ca.log	Energy: -505553.0935718
C          2.51901        0.47069        2.23008
H          2.88158        0.16545        3.21605
H          2.52380        1.56473        2.20015
H          3.23894        0.10589        1.48752
C          1.12051       -0.09692        1.99641
H          0.43672        0.31096        2.74597
H          1.12843       -1.18391        2.12158
C          0.54177        0.22603        0.59444
C          0.37538        1.76558        0.46623
H          1.35115        2.24191        0.32221
H         -0.05908        2.13492        1.39766
C         -0.54571        2.21121       -0.64857
O         -1.62830        2.73466       -0.45406
O         -0.12600        2.02709       -1.90434
H          0.74509        1.56497       -1.90494
C         -0.81587       -0.45054        0.37430
C         -1.12573       -1.10731       -0.82193
H         -0.38513       -1.19536       -1.61471
C         -2.39199       -1.65675       -1.02834
H         -2.60823       -2.16556       -1.96323
C         -3.37148       -1.55009       -0.04346
H         -4.35725       -1.97714       -0.20272
C         -3.07707       -0.88410        1.14682
H         -3.83463       -0.78540        1.91902
C         -1.81195       -0.33720        1.35274
H         -1.61102        0.19206        2.27987
C          1.53672       -0.28700       -0.44435
O          1.96505        0.36893       -1.38425
O          1.89888       -1.53998       -0.22919
C          2.81138       -2.11878       -1.18022
H          2.97212       -3.13947       -0.83974
H          3.74845       -1.55926       -1.17973
H          2.36218       -2.10917       -2.17517
