17
id_822_ca.log	Energy: -311318.1308700
C          0.00000        0.16290       -0.00000
H          0.00000        0.81275       -0.88135
H          0.00000        0.81278        0.88133
C          1.25061       -0.70449        0.00001
H          1.28027       -1.36185       -0.87774
H          1.28027       -1.36182        0.87779
C          2.51751        0.10115       -0.00000
O          2.58444        1.31636       -0.00001
O          3.61568       -0.67328       -0.00001
H          4.40855       -0.10240       -0.00001
C         -1.25061       -0.70449        0.00001
H         -1.28027       -1.36182        0.87779
H         -1.28027       -1.36185       -0.87774
C         -2.51750        0.10115       -0.00000
O         -2.58444        1.31636        0.00001
O         -3.61568       -0.67328       -0.00002
H         -4.40855       -0.10240       -0.00002
