13
id_800_ca.log	Energy: -3419774.7407138
C         -0.00703        2.53788       -0.00000
H         -0.00910        3.62264       -0.00000
C         -1.21186        1.83993       -0.00000
H         -2.15715        2.37236       -0.00000
C         -1.20124        0.45177       -0.00000
C         -0.00426       -0.27201        0.00000
C          1.18927        0.45718        0.00001
C          1.19961        1.84680        0.00000
H          2.14333        2.38210        0.00000
Br         2.82372       -0.48831       -0.00000
O         -0.06858       -1.62584        0.00000
H          0.82454       -2.01358       -0.00001
Br        -2.82486       -0.49815        0.00000
