30
id_858_ca.log	Energy: -480896.6703778
C          0.37697       -0.57476        2.03195
H         -0.20078        0.12358        2.64171
H          1.42673       -0.50818        2.33407
H          0.01667       -1.58880        2.22905
C          0.21348       -0.27174        0.53621
C          1.04389       -1.26411       -0.28972
H          0.84978       -1.16132       -1.36408
H          0.78572       -2.29093       -0.01387
C          2.52840       -1.08441       -0.11578
O          3.07312       -0.08092        0.30451
O          3.21538       -2.16213       -0.51658
H          4.17268       -1.98641       -0.42512
C         -1.27660       -0.33120        0.16540
C         -2.14637        0.61927        0.71957
H         -1.75600        1.39085        1.37986
C         -3.50952        0.59265        0.43740
H         -4.16331        1.34183        0.87465
C         -4.03244       -0.39261       -0.40213
H         -5.09565       -0.41701       -0.62241
C         -3.17794       -1.34367       -0.95368
H         -3.57090       -2.11717       -1.60736
C         -1.80889       -1.31265       -0.67519
H         -1.17133       -2.06786       -1.12254
C          0.67727        1.15705        0.24882
O          0.84750        2.01497        1.09392
O          0.82385        1.38548       -1.05722
C          1.26415        2.70251       -1.42333
H          1.33629        2.69432       -2.50927
H          2.24019        2.90341       -0.97601
H          0.53672        3.44643       -1.09284
