12
id_88_cb.log	Energy: -2382800.9830387
C          1.20673        0.32722       -0.00000
H          2.15413        0.85644       -0.00000
C         -0.00000        1.01728       -0.00000
C         -1.20674        0.32719       -0.00000
H         -2.15413        0.85641       -0.00000
C         -1.18759       -1.05916        0.00000
C          0.00003       -1.85807        0.00000
C          1.18761       -1.05915        0.00000
Cl         2.72432       -1.89965        0.00000
O          0.00002       -3.13935        0.00000
Cl        -2.72428       -1.89969        0.00000
Br        -0.00003        2.90911       -0.00000
