22
id_83_cb.log	Energy: -683178.4352351
C         -4.75544       -0.09643        0.00000
H         -5.12725       -0.62804       -0.88248
H         -5.17725        0.91173       -0.00000
H         -5.12725       -0.62804        0.88249
C         -3.25420       -0.04889        0.00000
C         -2.53623        1.11998       -0.00000
H         -3.04010        2.08469       -0.00000
C         -1.11757        1.08169       -0.00000
C         -0.32093        2.25632       -0.00000
H         -0.81035        3.22643       -0.00000
C          1.04778        2.16877       -0.00000
H          1.66699        3.06009        0.00000
C          1.65762        0.89228        0.00000
C          0.93490       -0.27385        0.00000
C         -0.48733       -0.18877        0.00000
N         -1.20301       -1.35418        0.00000
C         -2.51346       -1.26547        0.00000
H         -3.06146       -2.20709       -0.00000
C          1.60236       -1.64065       -0.00000
O          1.85054       -2.14636       -1.12407
O          1.85055       -2.14636        1.12407
Cl         3.40847        0.82185        0.00000
