13
id_820_cb.log	Energy: -203069.5668279
C          1.99987        0.27197        0.66918
H          2.86815        0.85149        0.35974
H          2.30529       -0.59281        1.25647
H          1.30705        0.89574        1.23236
N          1.29132       -0.21179       -0.54587
H          1.92123       -0.78813       -1.11172
H          1.00104        0.61101       -1.09405
C          0.03043       -0.93838       -0.23446
H         -0.22018       -1.57225       -1.08704
H          0.19094       -1.56363        0.64415
C         -1.09764        0.08479       -0.00356
O         -0.84216        1.27056       -0.33356
O         -2.15893       -0.37920        0.46283
