25
id_872_cb.log	Energy: -453365.9374381
C          1.70198       -3.88904       -0.00000
H          1.48657       -4.95268        0.00000
C          3.02338       -3.43141       -0.00000
H          3.84770       -4.13863       -0.00000
C          3.29430       -2.06724       -0.00000
H          4.31512       -1.69551       -0.00000
C          2.25320       -1.13643       -0.00000
C          0.91062       -1.58518       -0.00000
C          0.66494       -2.96573        0.00000
H         -0.37151       -3.29247        0.00000
N         -0.24216       -0.76298        0.00000
N         -0.00000        0.47622       -0.00000
C         -1.02758        1.41513        0.00000
C         -0.55034        2.74678       -0.00000
H          0.52919        2.88555       -0.00000
C         -1.39679        3.83498        0.00000
H         -1.00518        4.84685       -0.00000
C         -2.78841        3.59589        0.00000
H         -3.47899        4.43631        0.00000
C         -3.28737        2.31176        0.00000
H         -4.36098        2.13674        0.00000
C         -2.44834        1.14408        0.00000
O         -2.96584       -0.02847        0.00000
O          2.58052        0.18535       -0.00000
H          1.71821        0.68457       -0.00000
