21
id_833_cb.log	Energy: -936959.3270405
C          3.73967        0.69269       -0.82120
H          3.58928        1.39522       -1.64556
H          4.59573        0.05505       -1.05556
H          3.95675        1.25605        0.09204
C          2.49892       -0.16370       -0.62879
C          2.72145       -1.15221        0.53466
O          2.28054       -0.84169        1.66961
O          3.37930       -2.18759        0.24297
O          1.42559        0.74295       -0.36555
C          0.16763        0.24550       -0.28886
C         -0.17576       -1.09175       -0.50745
H          0.58399       -1.82636       -0.74999
C         -1.50173       -1.51001       -0.41674
H         -1.75115       -2.55217       -0.58677
C         -2.49113       -0.58773       -0.10587
C         -2.18257        0.75029        0.11681
H         -2.95525        1.47216        0.36011
C         -0.85770        1.15217        0.02273
Cl        -0.46053        2.82449        0.29986
Cl        -4.15693       -1.10658        0.01321
H          2.28146       -0.72515       -1.54427
