26
id_883_cb.log	Energy: -957613.9565338
C         -2.75763        2.95868        0.04998
H         -2.98684        3.99396        0.28521
C         -1.81988        2.65054       -0.93711
H         -1.31171        3.44725       -1.47392
C         -1.52673        1.32088       -1.23814
H         -0.79209        1.07757       -2.00241
C         -2.16714        0.27061       -0.56139
C         -3.11504        0.59164        0.42348
H         -3.62805       -0.21249        0.94355
C         -3.40316        1.92203        0.72691
H         -4.14048        2.14881        1.49247
N         -1.88243       -1.06986       -0.92712
S         -0.97474       -1.86949        0.07254
O         -1.44217       -1.89543        1.48812
O         -0.71672       -3.21529       -0.49752
C          0.61446       -1.03596        0.15042
C          0.82667       -0.04709        1.10884
H          0.07423        0.15775        1.86455
C          2.01639        0.67903        1.10083
H          2.19668        1.45069        1.84217
C          2.96827        0.39719        0.12650
C          2.76465       -0.58537       -0.83957
H          3.52352       -0.78783       -1.58840
C          1.57082       -1.30126       -0.82830
H          1.39164       -2.06583       -1.57854
Cl         4.46394        1.30302        0.11324
