25
id_815_ca.log	Energy: -478274.5693401
C         -2.28711        1.14770       -0.52057
H         -2.39252        1.12935       -1.60862
H         -1.43648        1.79087       -0.25938
C         -2.06066       -0.26096       -0.00308
C         -0.93469       -1.00561       -0.73032
C          0.40821       -0.27518       -0.83891
C          1.02499        0.14815        0.50705
C          2.35111        0.83449        0.23909
O          3.43156        0.43370        0.61691
O          2.18827        1.95410       -0.47309
H          3.06100        2.36308       -0.63562
O          1.29291       -0.94198        1.36343
H          0.51048       -1.52313        1.36606
O          1.33175       -1.07553       -1.56181
H          1.41380       -1.92834       -1.09936
O         -0.67853       -2.24371       -0.06540
H         -1.42314       -2.84906       -0.21620
O         -1.81692       -0.16409        1.39571
H         -1.78847       -1.06397        1.76143
O         -3.49059        1.70083       -0.00249
H         -3.39646        1.77408        0.96140
H         -2.98127       -0.83935       -0.16784
H         -1.26630       -1.20066       -1.75773
H          0.25481        0.62703       -1.43747
H          0.36596        0.88193        0.98747
