29
id_859_cb.log	Energy: -386979.0985827
C          0.92771        2.64475       -1.18057
H          0.72390        2.13508       -2.12969
H          1.98167        2.94264       -1.17457
H          0.31425        3.55184       -1.14552
C          0.60240        1.72955        0.00495
C         -0.88490        1.34706       -0.00183
H         -1.48150        2.26939       -0.02770
H         -1.10902        0.80529       -0.93238
C         -1.31213        0.50618        1.19948
H         -1.16444        1.08682        2.11943
H         -0.67388       -0.38189        1.27999
C         -2.77208        0.06814        1.10607
H         -3.43364        0.93863        1.04114
H         -3.05751       -0.48380        2.01175
C         -3.06161       -0.85884       -0.07828
O         -2.18703       -1.71732       -0.39088
O         -4.17968       -0.73449       -0.66036
C          1.49747        0.50447        0.00419
C          2.42698        0.29410        1.02739
H          2.50170        1.02027        1.83441
C          3.25426       -0.83167        1.03031
H          3.96879       -0.97457        1.83648
C          3.15985       -1.77041        0.00402
H          3.79916       -2.64871        0.00337
C          2.23449       -1.57313       -1.02383
H          2.15141       -2.29992       -1.82747
C          1.41293       -0.44683       -1.02245
H          0.69521       -0.30875       -1.82874
H          0.80538        2.28203        0.93272
