18
id_844_cb.log	Energy: -397789.8448139
C         -1.30265        1.76339       -0.27883
H         -1.23237        2.84282       -0.37177
C         -0.15311        0.99226       -0.46291
H          0.78534        1.48447       -0.69094
C         -0.23805       -0.39826       -0.34198
C         -1.45939       -1.00993       -0.03739
H         -1.53338       -2.08815        0.05951
C         -2.56488       -0.20063        0.13623
C         -2.53104        1.18186        0.02403
H         -3.43118        1.76842        0.17180
F         -3.74671       -0.79644        0.43190
O          0.81452       -1.25244       -0.51040
C          2.08193       -0.69484       -0.82128
H          2.71251       -1.54473       -1.09474
H          2.01275       -0.02826       -1.68722
C          2.75260        0.03329        0.35267
O          2.25062       -0.08030        1.49824
O          3.79663        0.67406        0.05005
