13
id_817_ca.log	Energy: -203076.2044705
C          2.01437        0.32530        0.63557
H          1.34327        1.09373        1.04397
H          2.96433        0.79983        0.38094
H          2.20242       -0.41480        1.41863
N          1.47919       -0.35443       -0.54684
H          1.38462        0.32930       -1.29698
C          0.17231       -0.92183       -0.28665
H         -0.15193       -1.54176       -1.13089
H          0.21610       -1.57599        0.58923
C         -0.92894        0.09650       -0.07305
O         -0.86050        1.27145       -0.37885
O         -2.03085       -0.45128        0.45836
H         -2.72882        0.22948        0.53167
