37
id_865_cb.log	Energy: -389985.4823441
C         -6.64193        1.95126        0.41254
H         -7.67192        2.18900        0.12643
H         -6.00167        2.77576        0.07792
H         -6.59718        1.91791        1.50745
C         -6.18184        0.62655       -0.19024
H         -6.25602        0.67368       -1.28516
H         -6.85391       -0.17960        0.13312
C         -4.74810        0.27056        0.19915
H         -4.67649        0.20409        1.29538
H         -4.08344        1.08960       -0.10729
C         -4.27546       -1.04579       -0.41769
H         -4.25467       -0.94362       -1.51249
H         -5.01551       -1.82600       -0.19240
C         -2.90126       -1.50785        0.07221
H         -2.67417       -2.48660       -0.37224
H         -2.93792       -1.66153        1.16056
C         -1.76181       -0.54378       -0.25877
H         -1.91443        0.41098        0.26209
H         -1.77923       -0.31881       -1.33582
C         -0.39047       -1.10074        0.11932
H         -0.22614       -2.04985       -0.41115
H         -0.38115       -1.33903        1.19304
C          0.75891       -0.14462       -0.19296
H          0.59613        0.80488        0.33713
H          0.75235        0.09243       -1.26675
C          2.12568       -0.70786        0.19097
H          2.28657       -1.65928       -0.33645
H          2.13071       -0.94329        1.26513
C          3.27893        0.24393       -0.12245
H          3.11833        1.19580        0.40074
H          3.28027        0.47359       -1.19594
C          4.62855       -0.33799        0.27872
H          4.80041       -1.28955       -0.24236
H          4.63480       -0.57908        1.34978
C          5.84836        0.54393        0.00853
O          5.69084        1.65622       -0.56891
O          6.97003        0.08916        0.38807
