32
id_892_cb.log	Energy: -505273.1852114
C          0.28654       -1.14971        1.18530
H          0.34914       -2.21308        0.92442
H         -0.66820       -0.97846        1.68875
H          1.08584       -0.92306        1.89791
C          0.41440       -0.30115       -0.07938
C         -0.70471       -0.67199       -1.09432
H         -0.53728       -0.09538       -2.01139
H         -0.58301       -1.73323       -1.34454
C         -2.11006       -0.43292       -0.59863
C         -2.70795        0.82763       -0.72424
H         -2.15550        1.63433       -1.20245
C         -3.99916        1.05838       -0.24938
H         -4.44610        2.04283       -0.35747
C         -4.71719        0.02682        0.35753
H         -5.72421        0.20375        0.72456
C         -4.13558       -1.23547        0.48299
H         -4.68855       -2.04677        0.94839
C         -2.84325       -1.46014        0.00747
H         -2.39477       -2.44690        0.10409
C          1.74490       -0.60381       -0.77977
H          1.79244       -0.10651       -1.75633
H          1.83386       -1.67934       -0.97129
C          2.96764       -0.16077       -0.02066
O          2.98276        0.59895        0.93060
O          4.08641       -0.68707       -0.53715
C          5.32059       -0.28700        0.07896
H          6.10300       -0.80500       -0.47278
H          5.33061       -0.58803        1.12832
H          5.44746        0.79430       -0.00326
C          0.29957        1.21582        0.21294
O         -0.15063        1.58287        1.33225
O          0.62658        2.00354       -0.72192
