30
id_890_cb.log	Energy: -410859.3617332
C          3.50718       -1.26598        1.12344
H          3.67027       -0.51234        1.90160
H          4.38915       -1.91464        1.08618
H          2.64889       -1.87788        1.42140
C          3.25832       -0.59548       -0.23258
H          3.14936       -1.37223       -1.00045
H          4.13464        0.00195       -0.50908
C          2.04502        0.29779       -0.22874
C          2.09856        1.69145       -0.16501
H          3.07754        2.16948       -0.14961
C          0.95280        2.50156       -0.12649
H          1.06505        3.58313       -0.08387
C         -0.36606        1.97813       -0.14901
C         -0.43262        0.54864       -0.21027
C          0.74165       -0.20705       -0.24541
O          0.43434       -1.54474       -0.31517
C         -0.95035       -1.63885       -0.32429
C         -1.52737       -0.41171       -0.26731
C         -2.99959       -0.12136       -0.20966
H         -3.23681        0.70718       -0.88564
H         -3.55660       -0.99332       -0.56964
C         -3.46483        0.22696        1.20758
H         -3.29511       -0.61686        1.88557
H         -4.53311        0.46775        1.22162
H         -2.91560        1.09047        1.59820
C         -1.48662       -3.02325       -0.38006
H         -2.57856       -3.00491       -0.39825
H         -1.16738       -3.60191        0.49411
H         -1.13340       -3.54673       -1.27553
O         -1.43119        2.73671       -0.12104
