38
id_865_ca.log	Energy: -390269.5756843
C         -6.67451        1.97477        0.42547
H         -7.70550        2.21866        0.14828
H         -6.03128        2.79176        0.07830
H         -6.61868        1.94892        1.52008
C         -6.23112        0.64212       -0.17239
H         -6.31611        0.68207       -1.26681
H         -6.90620       -0.15629        0.16358
C         -4.79634        0.27769        0.20508
H         -4.71428        0.21801        1.30098
H         -4.12875        1.08970       -0.11342
C         -4.33953       -1.04627       -0.40758
H         -4.32691       -0.95088       -1.50311
H         -5.08395       -1.81906       -0.17145
C         -2.96512       -1.51646        0.07406
H         -2.74842       -2.49887       -0.36748
H         -2.99471       -1.66467        1.16338
C         -1.82188       -0.56164       -0.26985
H         -1.96616        0.39732        0.24559
H         -1.84402       -0.34358       -1.34821
C         -0.45124       -1.12268        0.10472
H         -0.29192       -2.07467       -0.42192
H         -0.43767       -1.35515        1.17959
C          0.69750       -0.16946       -0.21762
H          0.53487        0.78444        0.30423
H          0.69067        0.05764       -1.29338
C          2.06456       -0.72749        0.17166
H          2.23272       -1.68008       -0.35024
H          2.07138       -0.95355        1.24733
C          3.20632        0.23415       -0.14925
H          3.03800        1.18931        0.36357
H          3.21821        0.44749       -1.22516
C          4.55641       -0.33149        0.27017
H          4.76435       -1.28047       -0.24231
H          4.57527       -0.55236        1.34553
C          5.70848        0.59121       -0.02139
O          5.62165        1.66615       -0.58296
O          6.92727        0.17488        0.37588
H          6.87662       -0.69060        0.82123
