39
id_851_ca.log	Energy: -674572.0627222
C          3.41728        3.43462       -0.06423
H          3.70264        3.26365        0.98009
H          3.63201        4.48082       -0.30475
H          4.05754        2.80599       -0.69366
C          1.94436        3.10373       -0.28531
H          1.67095        3.29728       -1.33065
H          1.31730        3.75925        0.33229
C          1.62569        1.64756        0.05285
H          1.87822        1.45600        1.10452
H          2.26327        0.99641       -0.55852
C          0.15269        1.31663       -0.20143
H         -0.08507        1.35196       -1.27131
H         -0.49197        2.04992        0.30169
P         -0.36918       -0.29182        0.45427
O         -0.30033       -0.36853        1.97165
C         -2.02716       -0.63477       -0.19879
H         -1.94983       -0.82783       -1.27514
H         -2.37101       -1.55680        0.28637
C         -3.01121        0.50741        0.07994
H         -2.99854        0.76072        1.14853
H         -2.70155        1.40663       -0.46707
C         -4.43393        0.13323       -0.33392
H         -4.43771       -0.13772       -1.39769
H         -4.74561       -0.76095        0.22083
C         -5.42219        1.26885       -0.08517
H         -5.14030        2.16334       -0.65233
H         -5.44672        1.53929        0.97667
H         -6.43708        0.98721       -0.38394
C          0.72374       -1.57935       -0.36497
C          0.19282       -2.98453       -0.05985
H          0.13930       -3.15641        1.01845
H          0.86413       -3.72894       -0.50272
H         -0.80134       -3.10641       -0.49671
C          2.14908       -1.51376        0.17805
O          2.41731       -1.56174        1.36260
O          3.07203       -1.46632       -0.78246
H          3.95933       -1.47198       -0.37141
O          0.66538       -1.27171       -1.74234
H          0.95754       -2.04557       -2.25601
