25
id_841_ca.log	Energy: -291497.0799554
C          2.38729        0.72556       -1.25249
H          3.48363        0.74456       -1.26098
H          2.03247        1.76122       -1.28192
H          2.04663        0.22127       -2.16428
C          1.88355       -0.01059       -0.00000
C          2.38728        0.72556        1.25249
H          3.48363        0.74456        1.26099
H          2.04662        0.22127        2.16428
H          2.03247        1.76122        1.28192
C          2.47804       -1.42179        0.00000
H          3.57144       -1.35305        0.00001
H          2.17776       -1.98893       -0.88850
H          2.17776       -1.98893        0.88850
C          0.35263       -0.03088       -0.00000
C         -0.39534       -1.21240       -0.00000
H          0.10202       -2.17698       -0.00000
C         -1.79315       -1.19868       -0.00000
H         -2.35522       -2.12964       -0.00000
C         -2.46998        0.01628       -0.00000
C         -1.75208        1.21306       -0.00000
H         -2.28855        2.15777        0.00000
C         -0.36227        1.17894       -0.00000
H          0.17481        2.12444        0.00000
O         -3.84436        0.09829        0.00000
H         -4.22634       -0.79531       -0.00000
