26
id_886_cb.log	Energy: -409355.1472697
C          2.25475       -1.98867       -0.60826
H          2.24168       -3.01927       -0.94990
C          3.35086       -1.16832       -0.87636
H          4.20299       -1.55012       -1.43133
C          3.35675        0.15114       -0.42994
H          4.20377        0.80307       -0.63137
C          2.26553        0.65000        0.28513
C          1.14987       -0.15182        0.56199
C          1.17145       -1.47148        0.10148
H          0.30940       -2.10354        0.30696
C         -0.04350        0.37410        1.33958
H          0.09145        1.44449        1.52082
H         -0.06931       -0.11716        2.32029
C         -1.35788        0.13391        0.63635
C         -2.27311       -0.79786        1.12194
H         -2.02425       -1.34317        2.03213
C         -3.49073       -1.04856        0.47862
H         -4.18772       -1.77934        0.87819
C         -3.78355       -0.33624       -0.68681
H         -4.72217       -0.51070       -1.20912
C         -2.88583        0.60214       -1.19094
H         -3.12397        1.15520       -2.09790
C         -1.64420        0.87546       -0.55492
O         -0.80555        1.76216       -1.02787
O          2.25377        1.94789        0.74368
H          3.06976        2.39725        0.46770
