16
id_805_cb.log	Energy: -737539.7913903
C         -0.46167       -1.19739        0.00051
H         -0.73758       -2.24461        0.00987
C         -1.43015       -0.21358        0.00644
C         -1.09050        1.15907        0.00027
H         -1.86925        1.91388        0.00406
C          0.22436        1.50820       -0.01193
C          1.33213        0.55151       -0.01183
C          0.87731       -0.83014        0.00104
N          1.82870       -1.90920        0.00478
O          1.42908       -3.04681       -0.25354
O          3.00442       -1.68105        0.27061
O          2.51861        0.93052       -0.04212
Cl         0.66312        3.19108       -0.02771
N         -2.80975       -0.59059        0.02596
O         -3.66195        0.29704        0.03479
O         -3.10364       -1.78535        0.03212
