25
id_896_ca.log	Energy: -969171.0762354
C          0.26493        0.00971       -0.00070
C          0.98618        1.07314       -0.53520
C          2.37123        1.08735       -0.52829
C          3.10535        0.02521        0.00013
C          2.38394       -1.04436        0.53026
C          0.99814       -1.04482        0.53415
F          0.36492       -2.08120        1.08957
F          2.99918       -2.08726        1.08767
C          4.59854        0.08144        0.00698
O          5.22247        1.11780        0.08293
O          5.15768       -1.12167       -0.08640
H          6.13074       -1.02428       -0.05586
F          2.98061        2.13618       -1.08004
F          0.34175        2.10257       -1.09030
C         -1.21074        0.00111       -0.00035
C         -1.92938       -1.06831       -0.53065
C         -3.31466       -1.08613       -0.53556
C         -4.01430       -0.01472       -0.00043
C         -3.32681        1.06439        0.53502
C         -1.94141        1.06221        0.53012
F         -1.30694        2.10441        1.07016
F         -3.99949        2.08944        1.05601
F         -5.34309       -0.02222       -0.00053
F         -3.97574       -2.11888       -1.05619
F         -1.28320       -2.10327       -1.07071
