31
id_863_ca.log	Energy: -340812.4960705
C          2.92101       -1.99868       -0.77153
H          3.70636       -2.74041       -0.59150
H          3.34218       -1.20165       -1.39398
H          2.11959       -2.48185       -1.34118
C          2.37773       -1.44103        0.54942
H          3.20235       -1.01828        1.13403
H          1.95971       -2.26478        1.13902
C          1.30679       -0.39856        0.32625
C         -0.03128       -0.78328        0.25390
H         -0.27028       -1.83571        0.40667
C         -1.08491        0.10681        0.00021
C         -0.73754        1.45053       -0.17905
C          0.59546        1.86302       -0.11143
H          0.81577        2.91837       -0.25607
C          1.62716        0.96064        0.13656
C          3.05101        1.45154        0.21718
H          3.70519        0.91017       -0.47469
H          3.46140        1.31149        1.22408
H          3.10644        2.51638       -0.02446
O         -1.65489        2.45373       -0.42553
H         -2.55518        2.09410       -0.45687
C         -2.51352       -0.40985       -0.04835
H         -3.19379        0.40578       -0.32117
C         -2.95663       -0.92636        1.32533
H         -2.86904       -0.14696        2.08956
H         -2.33957       -1.77817        1.63386
H         -3.99983       -1.25895        1.28979
C         -2.68251       -1.49704       -1.11561
H         -2.37695       -1.13519       -2.10287
H         -3.73067       -1.81004       -1.17302
H         -2.08117       -2.38055       -0.87430
