26
id_872_ca.log	Energy: -453660.3500083
C         -3.93235        1.36909        0.00001
H         -4.53188        2.27312        0.00002
C         -4.54398        0.10917        0.00000
H         -5.62715        0.03114        0.00001
C         -3.78051       -1.05139       -0.00000
H         -4.24581       -2.03262       -0.00001
C         -2.38507       -0.98211       -0.00001
C         -1.75882        0.28615        0.00000
C         -2.54943        1.44612        0.00001
H         -2.03864        2.40531        0.00001
N         -0.37088        0.50745        0.00000
N          0.37087       -0.50744        0.00000
C          1.75882       -0.28614        0.00000
C          2.54942       -1.44612        0.00001
H          2.03861       -2.40530        0.00001
C          3.93233       -1.36910        0.00001
H          4.53186       -2.27314        0.00002
C          4.54397       -0.10918        0.00000
H          5.62714       -0.03116        0.00000
C          3.78052        1.05138       -0.00000
H          4.24583        2.03260       -0.00001
C          2.38508        0.98211       -0.00001
O          1.69540        2.15025       -0.00001
H          0.73150        1.94097       -0.00001
O         -1.69538       -2.15024       -0.00001
H         -0.73148       -1.94095       -0.00002
