24
id_842_cb.log	Energy: -291202.2593496
C         -3.74362       -0.28995        0.15675
H         -4.09020       -1.31115        0.34199
H         -4.21298        0.06309       -0.76867
H         -4.11324        0.34650        0.96856
C         -2.23745       -0.23507        0.06040
C         -1.46650       -1.39722        0.14708
H         -1.94538       -2.36321        0.28934
C         -0.07127       -1.30780        0.04428
H          0.51121       -2.22505        0.10846
C          0.58982       -0.09581       -0.13854
C         -0.18086        1.11382       -0.22717
C         -1.59081        0.98926       -0.12599
H         -2.18244        1.90258       -0.19761
O          0.38676        2.28343       -0.39887
C          2.10186        0.00209       -0.20888
H          2.34150        0.77759       -0.94820
C          2.67551        0.46082        1.14035
H          2.21693        1.39722        1.47453
H          3.75924        0.61562        1.07443
H          2.48765       -0.30223        1.90626
C          2.79054       -1.29106       -0.64656
H          2.68594       -2.07886        0.10875
H          3.86262       -1.11400       -0.78721
H          2.38172       -1.67006       -1.59001
