26
id_884_cb.log	Energy: -957614.8756281
C         -2.41983        3.04219        0.22642
H         -2.56823        4.11797        0.23714
C         -3.11933        2.25199       -0.68786
H         -3.81251        2.71020       -1.38703
C         -2.93108        0.87118       -0.70691
H         -3.46670        0.24968       -1.41876
C         -2.05014        0.29095        0.20530
C         -1.34172        1.07029        1.11954
H         -0.65622        0.60385        1.82150
C         -1.53205        2.45258        1.12656
H         -0.98706        3.06632        1.83763
S         -1.71141       -1.46811        0.09580
O         -2.93887       -2.10695       -0.44066
O         -1.38225       -1.87488        1.49146
N         -0.55612       -1.66308       -0.95418
C          0.68169       -1.06163       -0.63378
C          1.13892        0.01468       -1.41059
H          0.50823        0.38669       -2.21377
C          2.37430        0.61153       -1.16881
H          2.71375        1.44329       -1.77867
C          3.16348        0.12973       -0.12962
C          2.74370       -0.93720        0.65898
H          3.37455       -1.30863        1.46088
C          1.51041       -1.53027        0.39975
H          1.18464       -2.37258        1.00198
Cl         4.72023        0.87371        0.18736
