19
id_829_cb.log	Energy: -335690.2808369
C          0.73208       -0.37850        0.00001
H          0.79203       -1.03087       -0.88044
H          0.79203       -1.03082        0.88050
C         -0.60694        0.35672       -0.00001
H         -0.66881        1.00803       -0.88076
H         -0.66881        1.00809        0.88070
C         -1.78497       -0.60772        0.00003
H         -1.76036       -1.26630        0.87741
H         -1.76036       -1.26637       -0.87729
C         -3.11768        0.08381       -0.00000
O         -3.29353        1.28862       -0.00009
O         -4.14664       -0.78253        0.00007
C          1.90145        0.59757       -0.00002
H          1.84290        1.25751        0.87554
H          1.84290        1.25745       -0.87562
C          3.30005       -0.02119       -0.00000
O          3.42127       -1.27842       -0.00004
O          4.27269        0.79249        0.00004
H         -4.98587       -0.28214        0.00004
