50
id_84_ca.log	Energy: -866688.0546186
C         -4.95472        2.43251       -1.08041
H         -5.18891        1.96229       -2.04133
H         -5.87464        2.83697       -0.64819
H         -4.26284        3.26026       -1.25697
C         -4.31115        1.43608       -0.13668
C         -3.04143        0.82856       -0.70786
H         -3.25708        0.38775       -1.69580
H         -2.31420        1.63063       -0.84414
N         -2.50085       -0.19223        0.19699
C         -3.44869       -1.28675        0.39448
H         -3.71331       -1.78127       -0.55298
H         -3.01534       -2.02919        1.06771
C         -4.72137       -0.75421        1.03754
N         -5.27974        0.31811        0.13972
H         -5.56288       -0.11037       -0.75471
H         -6.13456        0.70556        0.56005
C         -5.76688       -1.83486        1.23264
H         -6.01617       -2.31231        0.27909
H         -6.67820       -1.41806        1.67112
H         -5.37439       -2.59679        1.91122
C         -1.14341       -0.48919        0.00399
C         -0.63833       -1.71039       -0.43573
C          0.71932       -2.01336       -0.52515
C          1.65798       -0.98931       -0.21356
C          1.17565        0.29996        0.14831
C         -0.19804        0.49763        0.29750
F         -0.67347        1.64802        0.82708
N          2.08846        1.32882        0.37690
C          3.40901        1.04928        0.43461
H          4.04506        1.89750        0.66261
C          3.95599       -0.18474        0.22586
C          3.10149       -1.26724       -0.20824
O          3.55141       -2.37860       -0.57428
C          5.45078       -0.32461        0.41705
O          6.15201        0.70928        0.22122
O          5.90055       -1.44169        0.79151
C          1.67972        2.72735        0.42744
H          1.33954        3.05395        1.40366
C          1.02294        3.31500       -0.77870
H          0.21552        4.01811       -0.60480
H          0.89601        2.66025       -1.63621
C          2.43043        3.70683       -0.42143
H          3.22706        3.32549       -1.05257
H          2.60861        4.68665        0.00818
N          1.06754       -3.25868       -0.98890
H          2.03457       -3.52002       -0.83484
H          0.37885       -3.98906       -0.85179
F         -1.49280       -2.69458       -0.81120
H         -4.10275        1.88861        0.83659
H         -4.48886       -0.25324        1.98078
