16
id_801_cb.log	Energy: -449144.7293607
C         -1.10042        2.43066       -0.05420
H         -1.34357        3.48851       -0.08291
C          0.26610        2.04350       -0.05185
H          1.06572        2.77444       -0.01307
C          0.54091        0.70668       -0.01936
C         -0.46074       -0.29269        0.02505
C         -1.85649        0.07185        0.05593
C         -2.09952        1.50176        0.00444
H         -3.14213        1.80651        0.00685
O         -2.81785       -0.74684        0.06532
N         -0.08849       -1.64579       -0.18021
O          0.94704       -1.88565       -0.81676
O         -0.80526       -2.54621        0.25369
N          1.95208        0.34873        0.17773
O          2.78055        0.87909       -0.54364
O          2.22499       -0.42047        1.08468
