30
id_864_cb.log	Energy: -340514.0619496
C          5.03176       -0.87907       -0.74419
H          4.93573       -0.73538       -1.82678
H          5.57668       -1.81415       -0.57705
H          5.64459       -0.05880       -0.35239
C          3.65984       -0.89984       -0.07523
H          3.77772       -1.06958        1.00340
H          3.07338       -1.74422       -0.46143
C          2.87933        0.39444       -0.29616
H          2.76029        0.56456       -1.37632
H          3.46738        1.24057        0.08873
C          1.50414        0.38891        0.36847
H          1.62234        0.21643        1.44803
H          0.91785       -0.45653       -0.01947
C          0.73412        1.68905        0.14798
H          0.62521        1.86516       -0.93222
H          1.32446        2.52650        0.54503
C         -0.66021        1.71168        0.79561
H         -1.09177        2.70942        0.64687
H         -0.55437        1.56463        1.87693
C         -1.60377        0.67730        0.22700
C         -2.29067        0.95210       -0.95695
H         -2.14041        1.92626       -1.42383
C         -3.15706        0.03247       -1.55660
H         -3.67742        0.27913       -2.47755
C         -3.33881       -1.20582       -0.93513
H         -4.00804       -1.94352       -1.37357
C         -2.67096       -1.50580        0.24863
H         -2.81824       -2.47164        0.72912
C         -1.77968       -0.58889        0.87441
O         -1.16043       -0.89976        1.98692
