12
id_86_cb.log	Energy: -1057729.0151453
C         -0.89206        1.20779       -0.00000
H         -1.42564        2.15313       -0.00001
C         -1.58059        0.00002        0.00000
C         -0.89208       -1.20777        0.00002
H         -1.42568       -2.15310        0.00003
C          0.49482       -1.18868        0.00002
C          1.29271       -0.00001        0.00001
C          0.49484        1.18867       -0.00001
Cl         1.33590        2.72497       -0.00000
O          2.57462       -0.00002        0.00001
Cl         1.33585       -2.72499       -0.00001
Cl        -3.33361        0.00002       -0.00000
