20
id_808_cb.log	Energy: -265935.2372762
C         -3.60176       -0.38713        0.00705
H         -4.33548       -0.42356        0.81897
H         -3.39028       -1.41733       -0.30208
H         -4.06437        0.12867       -0.84242
C         -2.32211        0.32105        0.44188
H         -1.88261       -0.19532        1.30445
H         -2.55403        1.34292        0.76923
C         -1.28271        0.37518       -0.68558
H         -1.73540        0.88119       -1.54934
H         -1.03661       -0.64444       -1.00027
C         -0.04390        1.12606       -0.28442
H         -0.14866        2.21311       -0.25534
C          1.15711        0.61943        0.02982
C          2.33534        1.49539        0.36996
H          3.12298        1.40321       -0.38602
H          2.77835        1.20446        1.33003
H          2.03559        2.54573        0.43081
C          1.44153       -0.87077        0.01780
O          0.63238       -1.64910        0.59724
O          2.50631       -1.24014       -0.55939
