14
id_824_ca.log	Energy: -284268.7658312
C          0.67456       -1.17471        0.04442
H          1.12065       -1.96080       -0.57070
H          0.72611       -1.49947        1.08527
C          1.55720        0.04985       -0.08674
O          2.60656        0.17478        0.51549
O          1.10052        0.95463       -0.95512
H          1.72970        1.70130       -1.00285
N         -0.69378       -0.98637       -0.37247
H         -0.90572       -1.18074       -1.34563
C         -1.41745        0.00178        0.23872
O         -1.01950        0.53536        1.28822
N         -2.57179        0.36958       -0.37478
H         -2.97439       -0.23106       -1.08476
H         -3.22393        0.90859        0.18225
