28
id_877_cb.log	Energy: -797515.2411680
C          1.90215        3.21965        0.48358
H          1.83662        4.30358        0.46197
C          2.61443        2.53661       -0.50428
H          3.10908        3.08946       -1.29849
C          2.70289        1.14523       -0.47800
H          3.26530        0.61698       -1.24264
C          2.07103        0.40718        0.53520
C          1.36476        1.10393        1.52835
H          0.87462        0.53646        2.31615
C          1.28186        2.49579        1.50327
H          0.72790        3.01490        2.28094
N          2.16215       -1.00739        0.60760
S          1.27065       -1.79334       -0.41497
O          1.43118       -3.24636       -0.17632
O          1.41415       -1.38881       -1.84075
C         -0.44414       -1.40579       -0.02994
C         -1.15218       -2.19415        0.87647
H         -0.69860       -3.09537        1.27801
C         -2.44166       -1.82470        1.25857
H         -2.99927       -2.44272        1.95412
C         -3.01752       -0.66184        0.75589
H         -4.01546       -0.35653        1.04759
C         -2.27404        0.10579       -0.13401
C         -0.99286       -0.23768       -0.54808
H         -0.44882        0.38282       -1.25240
N         -2.86311        1.34019       -0.66069
O         -2.18275        2.03816       -1.39725
O         -4.00800        1.61878       -0.33769
