29
id_858_cb.log	Energy: -480613.6303348
C          0.43885       -0.67458        1.98725
H         -0.11728        0.00788        2.63477
H          1.49478       -0.63707        2.27213
H          0.06620       -1.69009        2.15354
C          0.26169       -0.31668        0.50557
C          1.07410       -1.28971       -0.36125
H          0.87457       -1.12153       -1.42643
H          0.76461       -2.31475       -0.13689
C          2.59370       -1.19357       -0.18485
O          3.08723       -0.09742        0.19759
O          3.26171       -2.22560       -0.47977
C         -1.23641       -0.33898        0.15879
C         -2.08706        0.59712        0.76582
H         -1.67653        1.33451        1.45266
C         -3.45466        0.60111        0.50361
H         -4.09186        1.33907        0.98274
C         -4.00352       -0.33976       -0.36984
H         -5.07015       -0.34096       -0.57473
C         -3.16936       -1.27594       -0.97562
H         -3.58216       -2.01448       -1.65714
C         -1.79600       -1.27419       -0.71666
H         -1.17294       -2.01483       -1.20660
C          0.73484        1.11512        0.26547
O          0.94801        1.93860        1.13717
O          0.80985        1.40962       -1.03605
C          1.24477        2.73755       -1.35941
H          1.25670        2.78499       -2.44691
H          2.24687        2.90801       -0.95900
H          0.54708        3.47268       -0.95294
