27
id_885_ca.log	Energy: -409640.3868299
C         -4.95115        0.56038       -0.42991
H         -4.74848        1.55872       -0.02870
H         -5.98503        0.28476       -0.22382
H         -4.77493        0.54975       -1.51044
O         -4.15018       -0.41952        0.22281
C         -2.79371       -0.29906        0.11413
C         -2.15282        0.72287       -0.58778
H         -2.71615        1.49085       -1.10529
C         -0.75680        0.74853       -0.63462
H         -0.26960        1.53355       -1.20930
C          0.01618       -0.22359        0.00854
C         -0.65218       -1.24267        0.70761
H         -0.07501       -2.00766        1.22081
C         -2.03699       -1.28465        0.76082
H         -2.55182       -2.07173        1.30421
C          1.50099       -0.20992       -0.06378
C          2.20461       -1.36019       -0.44708
H          1.63725       -2.25275       -0.70003
C          3.59451       -1.37453       -0.52802
H          4.11246       -2.27755       -0.83587
C          4.31119       -0.21699       -0.21869
H          5.39545       -0.20930       -0.28139
C          3.63902        0.93414        0.18018
H          4.17910        1.83922        0.44322
C          2.24622        0.93588        0.26308
O          1.66014        2.10072        0.69757
H          0.70272        1.97121        0.81667
