23
id_832_ca.log	Energy: -407663.1323363
C          2.32784        2.49414        0.14378
H          3.26483        3.00968       -0.06391
H          2.04252        2.64820        1.18925
H          1.54178        2.87038       -0.51859
O          2.57749        1.11463       -0.10897
C          1.53818        0.24589        0.07042
C          0.25760        0.59212        0.48484
H          0.00842        1.62713        0.69764
C         -0.72279       -0.40013        0.63333
C         -0.40487       -1.72859        0.36351
H         -1.16146       -2.50021        0.47894
C          0.88349       -2.07926       -0.05038
H          1.14551       -3.11272       -0.25751
C          1.85092       -1.09887       -0.19634
O          3.11673       -1.44366       -0.59697
H          3.66567       -0.63936       -0.62629
C         -2.13043       -0.02067        1.04897
H         -2.11509        0.87655        1.67501
H         -2.60481       -0.83574        1.59797
C         -2.97352        0.26161       -0.16845
O         -3.85029       -0.46644       -0.59591
O         -2.63888        1.41191       -0.77053
H         -3.18632        1.52704       -1.57170
