18
id_821_ca.log	Energy: -537642.9650130
C          3.41203       -0.07331       -0.01432
H          3.76141       -0.62001       -0.89531
H          3.77402       -0.59998        0.87356
H          3.83909        0.92958       -0.02904
C          1.91406       -0.01691       -0.00462
C          1.19630        1.17182       -0.04104
C         -0.18971        1.20248       -0.02349
C         -0.94406        0.02974        0.01429
C         -0.23061       -1.17066        0.04393
C          1.15316       -1.17995        0.04107
F          1.77774       -2.36684        0.08748
F         -0.85858       -2.34823        0.10794
C         -2.43209        0.09714        0.04354
O         -3.05067        1.01736        0.53679
O         -3.01009       -0.95249       -0.53878
H         -3.98164       -0.85346       -0.47845
F         -0.78257        2.39824       -0.07780
F          1.84326        2.34604       -0.09662
