17
id_805_ca.log	Energy: -737811.6878860
C          0.54243       -1.19666       -0.00501
H          0.85294       -2.23472       -0.01461
C          1.46115       -0.16488       -0.01541
C          1.08142        1.17429       -0.00378
H          1.82480        1.96423       -0.01019
C         -0.26512        1.47353        0.01827
C         -1.25620        0.46800        0.01900
C         -0.80280       -0.86494        0.00167
N         -1.75130       -1.97608       -0.00863
O         -1.37427       -3.04008        0.45736
O         -2.85461       -1.79757       -0.49443
O         -2.55797        0.73581        0.06181
H         -2.72423        1.69239        0.16401
Cl        -0.77691        3.13081        0.04427
N          2.88233       -0.49078       -0.04159
O          3.68181        0.43183       -0.05178
O          3.20145       -1.66919       -0.05156
