18
id_813_ca.log	Energy: -345813.1248573
C         -3.28472       -0.70830        0.00000
H         -3.52923       -1.77228       -0.00001
H         -3.74537       -0.25306       -0.88526
H         -3.74536       -0.25308        0.88527
C         -1.79599       -0.51050        0.00000
C         -0.91334       -1.59371        0.00000
H         -1.32303       -2.59965        0.00000
C          0.46681       -1.42028        0.00000
H          1.14177       -2.26729        0.00000
C          0.94911       -0.11741       -0.00000
C          0.11970        0.99780       -0.00000
H          0.51913        2.00529       -0.00000
C         -1.25371        0.78768       -0.00000
O         -2.04385        1.90383       -0.00000
H         -2.98556        1.66291       -0.00000
N          2.39437        0.09860       -0.00000
O          2.81282        1.24794        0.00001
O          3.12852       -0.87987       -0.00001
