12
id_87_cb.log	Energy: -769345.1936909
C         -0.00896       -1.66128       -0.00000
H         -0.01845       -2.74512       -0.00000
C          1.19013       -0.94641        0.00000
H          2.13537       -1.48198        0.00000
C          1.19293        0.44033        0.00000
C          0.00000        1.22877        0.00000
C         -1.20667        0.46485       -0.00000
H         -2.14876        1.00549       -0.00000
C         -1.18723       -0.91874       -0.00000
Cl        -2.72359       -1.77986       -0.00000
O         -0.00892        2.51887        0.00000
Cl         2.73665        1.27548        0.00000
