29
id_879_ca.log	Energy: -797808.6278048
C         -1.87015        3.22514        0.32274
H         -1.77003        4.30598        0.34845
C         -1.25373        2.45021        1.30536
H         -0.67682        2.92317        2.09363
C         -1.37576        1.06196        1.28031
H         -0.90204        0.44558        2.03827
C         -2.12863        0.48291        0.25997
C         -2.74576        1.23803       -0.73695
H         -3.31792        0.75679       -1.52492
C         -2.61450        2.62341       -0.69410
H         -3.09331        3.23150       -1.45489
S         -2.19766       -1.28427        0.14222
O         -3.43590       -1.69078       -0.51768
O         -1.84810       -1.85342        1.43915
N         -0.97871       -1.71189       -0.93837
H         -1.30074       -1.49108       -1.88540
C          0.32355       -1.19604       -0.67719
C          1.04008       -1.65083        0.43365
H          0.61750       -2.41055        1.08117
C          2.30016       -1.13115        0.69679
H          2.87071       -1.47096        1.55300
C          2.82339       -0.18085       -0.17433
C          2.13546        0.27085       -1.29626
H          2.57193        1.01325       -1.95387
C          0.86789       -0.23839       -1.53938
H          0.29328        0.10788       -2.39408
N          4.15326        0.36057        0.09622
O          4.62024        1.17334       -0.68891
O          4.74329       -0.02107        1.09677
