14
id_828_ca.log	Energy: -203366.5163731
C         -1.29364        1.24749        0.43567
H         -0.82334        2.21014        0.22697
H         -1.19047        1.02080        1.50110
H         -2.35382        1.31169        0.17833
C         -0.62462        0.17183       -0.40790
C          0.85684        0.08855       -0.09935
O          1.22940       -1.08497        0.40464
O          1.60415        1.02297       -0.28932
N         -1.28767       -1.14411       -0.17017
H         -0.86028       -1.89916       -0.72035
H         -2.28023       -1.08611       -0.43050
H         -1.24013       -1.41342        0.82118
H         -0.72746        0.38942       -1.47327
H          2.18953       -1.07588        0.59461
