49
id_84_cb.log	Energy: -866397.9386239
C         -4.97493        2.44381       -1.03657
H         -5.24914        1.97081       -1.98761
H         -5.87437        2.89171       -0.60365
H         -4.25843        3.24393       -1.24850
C         -4.37365        1.41909       -0.08853
C         -3.07318        0.86635       -0.66513
H         -3.27090        0.44572       -1.66762
H         -2.34117        1.66992       -0.77232
N         -2.52744       -0.18341        0.20852
C         -3.48627       -1.27383        0.39354
H         -3.73512       -1.75974       -0.56421
H         -3.04908       -2.02114        1.06155
C         -4.77551       -0.72252        1.00274
N         -5.35351        0.35995        0.19264
H         -5.62628       -0.04828       -0.70739
C         -5.79251       -1.83972        1.17218
H         -6.07266       -2.25432        0.19594
H         -6.69846       -1.46825        1.66026
H         -5.38033       -2.65118        1.78051
C         -1.17680       -0.48123        0.00905
C         -0.66910       -1.70505       -0.42844
C          0.68744       -2.01106       -0.51864
C          1.63112       -0.99022       -0.21240
C          1.15000        0.30031        0.14727
C         -0.22201        0.50117        0.29930
F         -0.68484        1.65132        0.84271
N          2.06535        1.32887        0.37165
C          3.38536        1.04725        0.42925
H          4.02322        1.89520        0.65328
C          3.92989       -0.18869        0.22480
C          3.07265       -1.27099       -0.20619
O          3.52172       -2.38468       -0.56870
C          5.42402       -0.33071        0.41700
O          6.12782        0.70128        0.21887
O          5.87232       -1.44751        0.79466
C          1.65997        2.72865        0.40960
H          1.32322        3.06629        1.38320
C          1.00015        3.30490       -0.80027
H          0.19449        4.01123       -0.63128
H          0.86921        2.64148       -1.65048
C          2.40964        3.69805       -0.45172
H          3.20361        3.30885       -1.08144
H          2.59077        4.68212       -0.03316
N          1.03265       -3.25931       -0.98123
H          1.99864       -3.52176       -0.82229
H          0.34337       -3.98727       -0.83437
F         -1.52071       -2.69239       -0.80554
H         -4.13780        1.90072        0.86957
H         -4.53494       -0.29522        1.98468
