19
id_816_cb.log	Energy: -382732.6008841
C         -0.09789       -1.49619       -0.45655
H          0.48115       -2.40319       -0.60933
C         -1.44297       -1.59258       -0.09139
H         -1.92181       -2.55901        0.03907
C         -2.19117       -0.44138        0.10978
C         -1.59068        0.81236       -0.05846
C         -0.25415        0.90446       -0.42363
H          0.19112        1.89034       -0.54780
C          0.51117       -0.25165       -0.62459
C          1.97540       -0.12698       -0.95951
H          2.14653        0.70424       -1.64857
H          2.32383       -1.04462       -1.44947
C          2.86189        0.07082        0.28326
O          3.79208        0.92261        0.20303
O          2.62389       -0.64681        1.29450
O         -2.40688        1.89800        0.15428
H         -1.90787        2.72362        0.03381
O         -3.51633       -0.54103        0.46483
H         -3.88462        0.35335        0.57581
