13
id_86_ca.log	Energy: -1058013.5418379
C          0.95777        1.19467        0.00001
H          1.51256        2.12684        0.00000
C          1.61209       -0.03179        0.00000
C          0.90927       -1.22910        0.00001
H          1.42355       -2.18425        0.00000
C         -0.47931       -1.18154        0.00000
C         -1.18253        0.02811        0.00000
C         -0.43018        1.20857        0.00000
Cl        -1.26811        2.72929       -0.00000
O         -2.53147        0.12309       -0.00000
H         -2.94648       -0.75832        0.00003
Cl        -1.38527       -2.66884       -0.00000
Cl         3.35570       -0.06649       -0.00000
