31
id_875_cb.log	Energy: -683991.1138629
C          3.66089        1.20878       -1.00723
H          4.72600        1.46768       -0.99506
H          3.08361        2.12223       -0.82385
H          3.41433        0.84295       -2.00929
C          3.37065        0.15290        0.07247
C          4.19081       -1.11405       -0.22243
H          5.26067       -0.87566       -0.20579
H          3.95282       -1.52983       -1.20707
H          4.00005       -1.88626        0.53169
C          3.81426        0.71226        1.42693
H          3.66133       -0.01162        2.23529
H          3.27739        1.63312        1.68131
H          4.88324        0.94736        1.38525
C          1.88123       -0.19544        0.05049
C          1.30997       -0.71430       -1.12491
H          1.92645       -0.86767       -2.00653
C         -0.03699       -1.05085       -1.19075
H         -0.45566       -1.45589       -2.10957
C         -0.83728       -0.85875       -0.06518
C         -0.30703       -0.35642        1.11415
H         -0.94129       -0.22176        1.98600
C          1.04969       -0.02749        1.16336
H          1.44777        0.36578        2.09257
S         -2.58490       -1.26668       -0.16013
O         -3.10107       -1.27845        1.28090
C         -3.17227        0.28499       -0.93310
H         -2.85347        0.22807       -1.97772
H         -4.26325        0.22700       -0.87316
C         -2.62766        1.53898       -0.23891
O         -3.14570        1.85015        0.86570
O         -1.69563        2.15300       -0.82301
