25
id_869_ca.log	Energy: -466087.4944872
C          3.76722       -1.47659        0.51851
H          4.24127       -2.39699        0.84419
C          4.53876       -0.37093        0.15367
H          5.62291       -0.42367        0.18924
C          3.92422        0.80328       -0.26659
H          4.50802        1.66629       -0.57303
C          2.53173        0.88728       -0.31449
C          1.73604       -0.20646        0.06795
C          2.38056       -1.38646        0.46790
H          1.76981       -2.23604        0.76298
C          0.25318       -0.14579        0.04999
C         -0.48277       -1.17451       -0.55845
H          0.03834       -1.99808       -1.03699
C         -1.87044       -1.14634       -0.57076
H         -2.44079       -1.93600       -1.04572
C         -2.51361       -0.06990        0.03270
C         -1.82206        0.96503        0.65174
H         -2.35376        1.78166        1.12576
C         -0.43355        0.91739        0.65768
H          0.11917        1.70365        1.16480
N         -3.97437       -0.02646        0.01723
O         -4.57753       -0.94474       -0.51977
O         -4.53342        0.92654        0.54140
O          2.01210        2.07322       -0.77008
H          1.05064        2.00829       -0.90331
