25
id_840_ca.log	Energy: -291495.1026492
C         -2.00006        0.52885       -1.26126
H         -1.66171        0.00738       -2.16430
H         -1.65689        1.56435       -1.31174
H         -3.09661        0.53206       -1.26319
C         -1.49056       -0.19176       -0.00000
C         -2.00007        0.52887        1.26124
H         -1.66172        0.00743        2.16430
H         -3.09661        0.53207        1.26317
H         -1.65691        1.56438        1.31169
C         -2.10308       -1.59791        0.00001
H         -3.19457       -1.50625        0.00001
H         -1.81574       -2.17032        0.88909
H         -1.81574       -2.17033       -0.88906
C          0.04310       -0.24194        0.00000
C          0.74370       -1.45549        0.00000
H          0.18832       -2.38681        0.00001
C          2.13838       -1.52452        0.00000
H          2.63085       -2.49226        0.00001
C          2.88340       -0.34958       -0.00000
H          3.96921       -0.37795       -0.00000
C          2.22400        0.87652       -0.00001
H          2.78679        1.80759       -0.00001
C          0.82898        0.93005       -0.00000
O          0.20057        2.15175       -0.00000
H          0.86999        2.85611        0.00008
