17
id_821_cb.log	Energy: -537365.1385778
C         -3.38305       -0.00512       -0.00096
H         -3.75681       -0.55305        0.86914
H         -3.75540       -0.50667       -0.89909
H         -3.78412        1.00863        0.02540
C         -1.88229        0.01478        0.00043
C         -1.13489        1.18455        0.04924
C          0.25311        1.17731        0.03989
C          0.98104       -0.00417       -0.00051
C          0.23870       -1.17915       -0.04017
C         -1.14599       -1.16401       -0.04837
F         -1.79885       -2.33908       -0.10697
F          0.85581       -2.37088       -0.09956
C          2.50856       -0.01325       -0.00015
O          3.06862        0.73028       -0.84081
O          3.05865       -0.76370        0.84101
F          0.88468        2.36166        0.09881
F         -1.75642        2.37639        0.10845
