33
id_893_ca.log	Energy: -505552.9087125
C          0.09891       -1.29612        2.34111
H         -0.85826       -1.75726        2.07224
H          0.16243       -1.27030        3.43301
H          0.90339       -1.94540        1.98108
C          0.21596        0.12006        1.78485
H          1.21064        0.52435        2.00430
H         -0.50251        0.77308        2.28904
C         -0.03019        0.21381        0.26118
C          0.95625       -0.67525       -0.51204
H          0.76202       -0.63366       -1.59058
H          0.85421       -1.72020       -0.21268
C          2.38982       -0.25152       -0.32537
O          2.75315        0.88801       -0.09453
O          3.23969       -1.26694       -0.48338
C          4.63832       -0.94325       -0.39724
H          4.86668       -0.54012        0.59108
H          4.90136       -0.21944       -1.17082
H          5.16360       -1.88274       -0.55780
C         -1.48902       -0.15249       -0.05987
C         -1.83917       -1.26833       -0.82511
H         -1.07699       -1.91700       -1.24381
C         -3.18139       -1.57691       -1.06093
H         -3.43035       -2.45207       -1.65431
C         -4.19228       -0.77163       -0.54259
H         -5.23497       -1.01182       -0.72873
C         -3.85247        0.34818        0.21842
H         -4.62944        0.98797        0.62698
C         -2.51467        0.65168        0.45764
H         -2.26968        1.52819        1.05353
C          0.14154        1.66854       -0.17798
O          0.16854        2.62477        0.57164
O          0.19501        1.80233       -1.51041
H          0.27722        2.75044       -1.73155
