29
id_878_ca.log	Energy: -797807.9502703
C         -0.97857        3.23821        0.82029
H         -0.64792        4.24641        1.05086
C         -1.67152        2.99213       -0.36667
H         -1.88154        3.80398       -1.05560
C         -2.09623        1.70181       -0.67291
H         -2.63081        1.49529       -1.59553
C         -1.82191        0.68051        0.23593
C         -1.12733        0.90315        1.42425
H         -0.92032        0.08433        2.10694
C         -0.70754        2.20027        1.71254
H         -0.16840        2.39703        2.63377
S         -2.24471       -0.98280       -0.20776
O         -2.29437       -1.79169        1.00680
O         -3.38352       -0.97576       -1.12353
N         -0.95334       -1.55739       -1.12146
H         -0.97763       -1.09864       -2.03687
C          0.33290       -1.46064       -0.49999
C          0.70542       -2.40582        0.45783
H          0.02826       -3.21970        0.69547
C          1.94143       -2.30244        1.09304
H          2.22857       -3.03734        1.83716
C          2.81933       -1.27237        0.76862
H          3.78782       -1.18526        1.24644
C          2.41974       -0.35628       -0.19775
C          1.18833       -0.41485       -0.83694
H          0.89621        0.33152       -1.56915
N          3.32803        0.73918       -0.54915
O          4.40010        0.80960        0.03174
O          2.97203        1.53442       -1.40557
