34
id_882_ca.log	Energy: -375812.4587416
C         -2.64210        1.76762        0.07490
H         -1.76310        2.09302        0.63392
H         -3.52902        2.30599        0.41158
H         -2.49761        1.92329       -0.99353
N         -2.85634        0.31287        0.33764
C         -3.99240       -0.18483       -0.49476
H         -4.89458        0.34484       -0.18623
H         -4.10239       -1.25656       -0.32252
H         -3.78750        0.01747       -1.54520
C         -3.20768        0.13355        1.77978
H         -4.12542        0.68663        1.98261
H         -2.38842        0.52108        2.38666
H         -3.35468       -0.93032        1.97081
C         -1.59591       -0.47698        0.06801
H         -0.86013       -0.10597        0.78746
H         -1.83610       -1.51551        0.31737
C         -1.06240       -0.37675       -1.35188
H         -1.81428       -0.70942       -2.07376
H         -0.79467        0.65721       -1.59380
C          0.18274       -1.26647       -1.50650
H          0.49969       -1.22226       -2.55393
H         -0.08449       -2.30655       -1.28851
C          1.32503       -0.84107       -0.61320
C          1.68777       -1.59763        0.50647
H          1.15633       -2.52032        0.72586
C          2.72420       -1.16976        1.33714
H          3.00317       -1.76086        2.20492
C          3.41025        0.01225        1.06718
H          4.22112        0.35208        1.70681
C          3.04608        0.76500       -0.05084
C          2.01198        0.34547       -0.88564
H          1.75151        0.95016       -1.75196
O          3.68521        1.93752       -0.37907
H          4.38778        2.12339        0.26666
