19
id_834_ca.log	Energy: -252396.8873868
C          0.99075       -0.96424        1.30796
H          1.75583       -1.71770        1.52209
H          0.02009       -1.38638        1.59372
H          1.19042       -0.09948        1.95285
C          1.03733       -0.57585       -0.16982
H          0.78340       -1.45735       -0.77116
C          2.43780       -0.11462       -0.56850
H          2.46597        0.22682       -1.60964
H          3.14951       -0.93959       -0.46054
H          2.78501        0.70514        0.07135
C         -0.01064        0.51421       -0.52653
C         -1.38160        0.01368       -0.13541
O         -2.06435        0.46513        0.76431
O         -1.76693       -1.03916       -0.87081
H         -2.63721       -1.35063       -0.55429
N          0.19573        1.83196        0.06057
H          1.11315        2.17146       -0.22341
H          0.22155        1.75237        1.07727
H         -0.00946        0.62472       -1.61643
