16
id_810_ca.log	Energy: -324636.3487383
C          1.24930        1.30038       -0.00282
H          2.16551        1.87828       -0.00390
C          1.28996       -0.08324        0.00548
C          0.10733       -0.81998        0.00676
H          0.13504       -1.90454        0.01023
C         -1.11718       -0.16305        0.00198
C         -1.18561        1.24026        0.00360
C          0.02010        1.97174        0.00152
C          0.01672        3.45832        0.01859
O         -0.94476        4.16792        0.25074
O          1.22649        3.97852       -0.24542
H          1.16070        4.95143       -0.18797
O         -2.35178        1.91909       -0.00603
H         -3.11003        1.30754       -0.02820
I         -2.88512       -1.32965       -0.01352
I          3.14786       -1.08890        0.01361
