31
id_862_ca.log	Energy: -340813.2036069
C          3.15374       -1.67510        0.93530
H          2.40438       -2.13349        1.58909
H          3.52774       -0.77307        1.43266
H          3.98888       -2.37441        0.82676
C          2.53929       -1.34319       -0.43011
H          2.17835       -2.26470       -0.89831
H          3.31546       -0.94734       -1.09865
C          1.38375       -0.37690       -0.31995
C          0.06123       -0.83502       -0.31761
H         -0.09369       -1.90610       -0.43458
C         -1.04482        0.00687       -0.17712
C         -0.81534        1.39002       -0.02671
C          0.49711        1.86483       -0.02890
H          0.69289        2.92924        0.07995
C          1.58013        0.99937       -0.16891
O          2.83491        1.57518       -0.15093
H          3.52006        0.90191       -0.29317
C         -1.95175        2.37196        0.12419
H         -1.56543        3.38024        0.29548
H         -2.60485        2.11118        0.96403
H         -2.57815        2.39931       -0.77496
C         -2.45637       -0.55558       -0.12864
H         -3.13766        0.22052       -0.49660
C         -2.84861       -0.87595        1.32092
H         -2.75032        0.00118        1.96963
H         -2.20027       -1.66621        1.71900
H         -3.88572       -1.22671        1.37396
C         -2.65540       -1.79174       -1.00855
H         -3.71664       -2.06165       -1.03279
H         -2.10688       -2.65685       -0.61995
H         -2.32520       -1.61200       -2.03751
