23
id_868_ca.log	Energy: -344535.2579418
C          4.80262       -1.51112        0.41274
H          5.27626       -2.45321        0.66988
C          5.57533       -0.38428        0.12443
H          6.65943       -0.44104        0.15196
C          4.96026        0.81852       -0.20774
H          5.54420        1.70080       -0.45296
C          3.56781        0.90483       -0.24487
C          2.76958       -0.21104        0.05940
C          3.41458       -1.41489        0.37548
H          2.80356       -2.28265        0.61123
C          1.28491       -0.14249        0.03556
C          0.59125        0.85052        0.74093
H          1.13959        1.58506        1.32667
C         -0.80281        0.89535        0.73430
H         -1.32143        1.66791        1.29269
C         -1.51228       -0.06466        0.01793
C         -0.84608       -1.06474       -0.68779
H         -1.40026       -1.81184       -1.24675
C          0.54663       -1.09698       -0.67614
H          1.06618       -1.87159       -1.23402
I         -3.62791       -0.01078        0.00726
O          3.04083        2.11835       -0.61294
H          2.07398        2.05675       -0.70547
