40
id_895_cb.log	Energy: -508279.2663113
C         -3.36332       -0.32031        0.48837
H         -3.24864       -1.38411        0.72641
H         -4.32647       -0.19446       -0.01962
H         -3.40225        0.23951        1.43110
C         -2.22545        0.18832       -0.40803
C         -2.18471       -0.64945       -1.69113
H         -1.43465       -0.27553       -2.39662
H         -3.16030       -0.59095       -2.18909
H         -1.97080       -1.70175       -1.48568
C         -2.54519        1.64040       -0.78910
H         -1.77585        2.07841       -1.43450
H         -2.64113        2.27064        0.10311
H         -3.49500        1.67866       -1.33566
C         -0.89247        0.15980        0.41100
C          0.37216        0.53255       -0.42650
C          1.16402       -0.68881       -0.85816
O          1.13540       -1.15855       -1.98547
O          1.94397       -1.19376        0.09727
C          2.67782       -2.37702       -0.24033
H          3.36812       -2.17165       -1.06159
H          1.98845       -3.17698       -0.52108
H          3.22787       -2.64709        0.65967
C          1.28030        1.62937        0.22442
C          1.65663        1.34367        1.68365
H          0.76986        1.27796        2.32321
H          2.27323        2.16877        2.06002
H          2.22829        0.41893        1.79242
C          0.52613        2.96559        0.17662
H          1.15863        3.75754        0.59405
H         -0.40005        2.93789        0.76030
H          0.27347        3.24004       -0.85436
C          2.55515        1.78580       -0.61743
H          3.13793        2.64169       -0.25853
H          2.30774        1.96487       -1.67137
H          3.19857        0.90039       -0.56150
C         -0.74839       -1.16739        1.18560
O         -0.63934       -2.23908        0.52723
O         -0.78224       -1.10664        2.44924
H         -1.01140        0.93404        1.17522
H          0.03592        0.96232       -1.37601
