28
id_878_cb.log	Energy: -797517.6997689
C         -1.62170        3.20362        0.72868
H         -1.49978        4.26190        0.93997
C         -2.31126        2.79672       -0.41535
H         -2.72762        3.53582       -1.09326
C         -2.46739        1.43986       -0.69276
H         -2.99624        1.11492       -1.58418
C         -1.94120        0.49922        0.19208
C         -1.24704        0.89318        1.33571
H         -0.83766        0.14835        2.01241
C         -1.09022        2.25390        1.60129
H         -0.55308        2.56906        2.49092
S         -2.01741       -1.24162       -0.23421
O         -2.04958       -1.94985        1.07580
O         -3.23670       -1.43076       -1.05653
N         -0.76319       -1.56566       -1.13004
C          0.48571       -1.40697       -0.49539
C          1.00872       -2.37221        0.38316
H          0.41645       -3.25667        0.59780
C          2.26455       -2.21551        0.96726
H          2.64563       -2.97686        1.64047
C          3.04180       -1.09412        0.69138
H          4.02177       -0.95913        1.13270
C          2.51353       -0.15086       -0.18378
C          1.26378       -0.27721       -0.77953
H          0.88526        0.48601       -1.45095
N          3.30836        1.04031       -0.48933
O          4.40597        1.15910        0.03769
O          2.84431        1.87181       -1.25690
