30
id_852_ca.log	Energy: -397596.5319106
C          3.48410        1.29350        0.24376
H          4.53668        1.12356        0.46780
H          3.02729        1.88273        1.03819
H          3.38257        1.78320       -0.72446
N          2.82527       -0.05108        0.18687
C          3.01669       -0.70915        1.52613
H          4.08703       -0.73375        1.73407
H          2.61916       -1.72202        1.49048
H          2.49100       -0.11452        2.27352
C          3.52804       -0.85729       -0.87189
H          4.59130       -0.86779       -0.63001
H          3.35459       -0.37531       -1.83433
H          3.13703       -1.87312       -0.87194
C          1.36769        0.03443       -0.12483
C          0.73785        1.26040       -0.30008
H          1.27073        2.19922       -0.22203
C         -0.62788        1.29049       -0.58935
H         -1.11638        2.25095       -0.73067
C         -1.36431        0.11409       -0.70341
C         -0.71183       -1.10941       -0.52072
H         -1.26936       -2.03835       -0.60827
C          0.64630       -1.15580       -0.23325
H          1.12342       -2.12127       -0.10165
C         -2.85023        0.14505       -0.99858
H         -3.11686       -0.63292       -1.71617
H         -3.13444        1.12180       -1.40193
C         -3.63672       -0.11736        0.26692
O         -4.18012       -1.17272        0.52460
O         -3.70094        0.87978        1.16452
H         -3.25050        1.68489        0.84822
