20
id_816_ca.log	Energy: -383015.8704073
C          0.16445       -1.54185        0.43251
H         -0.38991       -2.46565        0.57344
C          1.51010       -1.59366        0.06127
H          2.01505       -2.54391       -0.08657
C          2.22480       -0.41854       -0.12113
C          1.59136        0.81707        0.06946
C          0.25459        0.86679        0.43959
H         -0.21857        1.83651        0.58544
C         -0.47099       -0.31638        0.62499
C         -1.93219       -0.24097        1.00366
H         -2.10460        0.49216        1.79450
H         -2.27768       -1.21825        1.36086
C         -2.82033        0.13642       -0.15598
O         -3.68595        0.99158       -0.11836
O         -2.58013       -0.59098       -1.25553
H         -3.19844       -0.31955       -1.96178
O          2.37759        1.92494       -0.12783
H          1.86529        2.73638        0.02869
O          3.54875       -0.47563       -0.47971
H          3.89599        0.42971       -0.56935
