12
id_827_cb.log	Energy: -202798.7895492
C          1.19159       -1.20941        0.51220
H          1.19234       -0.84287        1.54626
H          2.22292       -1.44084        0.22898
H          0.60403       -2.13115        0.47407
C          0.61112       -0.14743       -0.41984
C         -0.86509        0.06953       -0.03879
O         -1.15837        1.04919        0.70159
O         -1.69262       -0.78625       -0.47009
N          1.44547        1.05264       -0.37114
H          1.39936        1.42559        0.57808
H          1.01951        1.77026       -0.95737
H          0.62575       -0.52913       -1.44547
