31
id_891_ca.log	Energy: -411175.0474380
C         -0.59292        1.44603        0.00010
H         -0.15061        2.43920        0.00016
C         -1.97725        1.30992        0.00008
H         -2.61534        2.18858        0.00013
C         -2.55295        0.03646       -0.00000
C         -1.73072       -1.09702       -0.00007
H         -2.16938       -2.08952       -0.00013
C         -0.34866       -0.94981       -0.00005
H          0.27855       -1.83773       -0.00011
C          0.24328        0.32236        0.00003
C          1.74595        0.47932        0.00005
H          1.96593        1.55671        0.00015
C          2.38421       -0.12808        1.26140
H          1.93857        0.32498        2.15538
H          2.15665       -1.20320        1.29601
C          3.90205        0.06632        1.26091
H          4.12749        1.14138        1.30776
H          4.33684       -0.39071        2.15741
C          4.53488       -0.52571       -0.00005
H          5.61713       -0.35120       -0.00004
H          4.38508       -1.61508       -0.00016
C          3.90205        0.06656       -1.26090
H          4.33683       -0.39030       -2.15749
H          4.12749        1.14163       -1.30754
C          2.38421       -0.12784       -1.26143
H          2.15664       -1.20294       -1.29623
H          1.93856        0.32540       -2.15531
C         -4.03057       -0.07339       -0.00001
O         -4.79229        0.88007        0.00005
O         -4.47744       -1.33810       -0.00008
H         -5.45386       -1.32363       -0.00008
