26
id_880_cb.log	Energy: -669229.7453082
C         -3.49103        1.50697        0.07444
H         -4.23592        2.25639        0.32570
C         -3.44698        0.29559        0.76750
H         -4.16185        0.09792        1.56196
C         -2.49616       -0.67160        0.44316
H         -2.47489       -1.61803        0.97576
C         -1.55913       -0.44222       -0.57799
C         -1.61463        0.77857       -1.26959
H         -0.89202        0.96112       -2.06158
C         -2.57145        1.74119       -0.94933
H         -2.59529        2.67805       -1.49968
N         -0.60459       -1.41455       -0.96749
S          0.58564       -1.64371        0.03256
O          0.19372       -1.98703        1.43002
O          1.52676       -2.61813       -0.57610
C          1.47522       -0.09135        0.18156
C          2.42275        0.24065       -0.78669
H          2.67618       -0.46987       -1.56838
C          3.04110        1.48841       -0.73549
H          3.78790        1.74988       -1.47925
C          2.70079        2.39867        0.26751
H          3.18316        3.37103        0.30271
C          1.74274        2.06130        1.22337
H          1.47594        2.76887        2.00271
C          1.12284        0.81154        1.18375
H          0.37839        0.54084        1.92700
