31
id_861_ca.log	Energy: -340812.1922172
C         -3.04454       -0.62630        1.67277
H         -3.79707        0.17133        1.65861
H         -2.10234       -0.19098        2.02325
H         -3.35999       -1.37509        2.40652
C         -2.88968       -1.24890        0.28831
H         -3.82480       -1.74224       -0.00106
H         -2.11986       -2.03094        0.32232
C         -2.54013       -0.21142       -0.79353
H         -3.33455        0.54313       -0.82370
H         -2.54162       -0.69493       -1.78032
C         -1.22593        0.49217       -0.54669
C         -1.19552        1.78840       -0.02138
H         -2.14064        2.28813        0.18041
C          0.00840        2.43794        0.24177
H          0.01019        3.44513        0.64791
C          1.21079        1.78354       -0.02494
H          2.15868        2.27955        0.17344
C          1.23075        0.48929       -0.54885
C          0.00146       -0.13976       -0.79860
O          0.06784       -1.41349       -1.32050
H         -0.82242       -1.76617       -1.47918
C          2.52822       -0.23516       -0.80939
H          2.48280       -0.74092       -1.78052
H          3.33657        0.50390       -0.86561
C          2.87497       -1.26415        0.27975
H          2.08147       -2.01895        0.33526
H          3.78979       -1.78812       -0.02194
C          3.08043       -0.62925        1.65230
H          3.85849        0.14275        1.61238
H          3.38640       -1.37810        2.39025
H          2.16096       -0.15798        2.01681
