24
id_854_ca.log	Energy: -384993.0899172
C          2.78701        1.17921       -0.92106
H          3.27227        1.98800       -1.45804
C          3.54550        0.21995       -0.24698
H          4.63009        0.27694       -0.25408
C          2.92013       -0.81414        0.44231
H          3.49555       -1.56346        0.97810
C          1.52703       -0.89495        0.45912
C          0.74384        0.04951       -0.22359
C          1.39778        1.08627       -0.90394
H          0.79387        1.82154       -1.43106
C         -0.74384       -0.04951       -0.22359
C         -1.39778       -1.08627       -0.90394
H         -0.79387       -1.82154       -1.43106
C         -2.78701       -1.17921       -0.92106
H         -3.27227       -1.98800       -1.45804
C         -3.54550       -0.21995       -0.24698
H         -4.63009       -0.27694       -0.25408
C         -2.92013        0.81414        0.44231
H         -3.49555        1.56346        0.97810
C         -1.52703        0.89495        0.45912
O         -0.97418        1.92838        1.17175
H         -0.00260        1.86527        1.15592
O          0.97418       -1.92838        1.17175
H          0.00260       -1.86527        1.15592
