33
id_892_ca.log	Energy: -505557.4525362
C          0.28626       -1.24483        1.14102
H          0.32680       -2.29677        0.84035
H         -0.65902       -1.07013        1.66053
H          1.10128       -1.05207        1.84545
C          0.41319       -0.36440       -0.10097
C         -0.71955       -0.67621       -1.12540
H         -0.54605       -0.07427       -2.02410
H         -0.60430       -1.72991       -1.40379
C         -2.11657       -0.43251       -0.60932
C         -2.69775        0.83806       -0.70402
H         -2.14281        1.64645       -1.17718
C         -3.98001        1.07599       -0.20888
H         -4.41589        2.06755       -0.29324
C         -4.70269        0.04151        0.38673
H         -5.70284        0.22371        0.76945
C         -4.13652       -1.23061        0.48071
H         -4.69477       -2.04332        0.93695
C         -2.85328       -1.46323       -0.01435
H         -2.41601       -2.45694        0.05726
C          1.74682       -0.62674       -0.81476
H          1.78293       -0.11387       -1.78380
H          1.84423       -1.69779       -1.01901
C          2.95209       -0.16673       -0.03720
O          2.92654        0.62865        0.88495
O          4.08136       -0.70823       -0.49826
C          5.29773       -0.28137        0.13857
H          6.09559       -0.81972       -0.36936
H          5.27472       -0.54128        1.19847
H          5.42438        0.79602        0.01642
C          0.29135        1.10082        0.28639
O         -0.14251        1.50959        1.34696
O          0.65078        1.93132       -0.70319
H          0.51607        2.85320       -0.40918
