14
id_806_cb.log	Energy: -609254.3879370
C          1.15086       -1.34870       -0.00000
H          2.07648       -1.91364       -0.00000
C         -0.05910       -1.99344        0.00000
H         -0.10264       -3.07871        0.00000
C         -1.31707       -1.29014        0.00000
C         -1.20145        0.15352        0.00000
C         -0.00000        0.81092       -0.00000
H          0.03808        1.89468       -0.00000
C          1.18909        0.05910       -0.00000
N          2.42953        0.73216       -0.00000
O          2.45143        1.97114       -0.00000
O          3.47818        0.07244       -0.00000
Cl        -2.68134        1.08182        0.00000
O         -2.43083       -1.88932        0.00000
