28
id_876_ca.log	Energy: -1158662.4289105
C         -3.76546        2.01334       -0.10909
H         -4.56510        2.74134       -0.17181
C         -3.99283        0.68626       -0.42849
H         -4.97389        0.35317       -0.74650
C         -2.96458       -0.25320       -0.34781
C         -1.64326        0.08138        0.05880
C         -1.49574        1.43949        0.43968
C         -2.49939        2.38837        0.32933
H         -2.29239        3.40866        0.63548
N         -0.26716        1.89867        1.08460
O          0.25490        1.17430        1.91746
O          0.15832        3.00174        0.77892
N         -0.60415       -0.80145        0.05193
H         -0.85481       -1.78476        0.01601
C          0.74137       -0.47775       -0.20895
C          1.09435        0.50352       -1.13989
H          0.31584        1.02878       -1.68713
C          2.42758        0.80946       -1.38553
H          2.68750        1.57579       -2.10788
C          3.41790        0.10485       -0.70945
C          3.10336       -0.89367        0.20503
H          3.88072       -1.44036        0.72844
C          1.76394       -1.16775        0.45309
Cl         1.35962       -2.38981        1.62330
Cl         5.09605        0.47059       -1.01576
N         -3.30599       -1.60558       -0.73888
O         -4.32890       -1.78808       -1.38236
O         -2.56265       -2.52585       -0.40387
