30
id_861_cb.log	Energy: -340516.0715819
C         -3.13477       -0.65099        1.63040
H         -3.91533        0.11896        1.59043
H         -2.22243       -0.18016        2.01276
H         -3.44790       -1.40951        2.35583
C         -2.90786       -1.26548        0.25158
H         -3.81900       -1.78704       -0.06785
H         -2.11533       -2.02183        0.31011
C         -2.53788       -0.22124       -0.81599
H         -3.33972        0.52799       -0.85947
H         -2.50549       -0.71593       -1.79487
C         -1.22422        0.47248       -0.55116
C         -1.19939        1.75554       -0.00268
H         -2.14844        2.24920        0.20726
C          0.00000        2.41474        0.27869
H          0.00000        3.41520        0.70215
C          1.19939        1.75554       -0.00268
H          2.14844        2.24920        0.20726
C          1.22423        0.47248       -0.55116
C          0.00000       -0.21059       -0.84334
O          0.00000       -1.41090       -1.37105
C          2.53788       -0.22124       -0.81598
H          2.50549       -0.71593       -1.79487
H          3.33972        0.52799       -0.85946
C          2.90786       -1.26548        0.25158
H          2.11534       -2.02183        0.31010
H          3.81900       -1.78704       -0.06785
C          3.13477       -0.65099        1.63040
H          3.91532        0.11896        1.59043
H          3.44790       -1.40951        2.35583
H          2.22243       -0.18016        2.01276
