28
id_873_ca.log	Energy: -589158.9174133
C         -2.90176       -2.30136        0.90804
H         -3.42309       -3.25388        0.76929
H         -3.49297       -1.68348        1.59200
H         -1.93895       -2.50956        1.38720
C         -2.71354       -1.58572       -0.43450
H         -3.69374       -1.39034       -0.88187
H         -2.17438       -2.24403       -1.12822
C         -1.97266       -0.28026       -0.28981
C         -2.63583        0.94147       -0.21396
H         -3.72030        0.95495       -0.29613
C         -1.95314        2.15509       -0.04088
H         -2.49764        3.09345        0.00899
C         -0.57105        2.17336        0.05931
C          0.14946        0.96604       -0.00642
C         -0.57449       -0.23177       -0.17866
S          0.51678       -1.59883       -0.24758
C          1.92139       -0.56355       -0.04619
C          1.57530        0.74389        0.06755
H          2.30874        1.53347        0.20066
C          3.28935       -1.18310       -0.01748
H          3.32781       -1.92349        0.79120
H          3.44686       -1.73998       -0.94954
C          4.40552       -0.15975        0.16691
H          5.37546       -0.66462        0.17950
H          4.29272        0.38343        1.11069
H          4.41255        0.56964       -0.64943
O          0.04798        3.39039        0.21969
H          1.01341        3.28651        0.22598
