13
id_819_ca.log	Energy: -203084.3808355
C          2.00244       -0.28082       -0.67773
H          2.29225        0.58354       -1.27412
H          1.31286       -0.91613       -1.23259
H          2.88069       -0.84802       -0.37246
N          1.30665        0.20986        0.54415
H          1.93971        0.81491        1.07670
H          1.06695       -0.59904        1.13274
C          0.03586        0.92556        0.24983
H         -0.21772        1.54262        1.11463
H          0.19123        1.56873       -0.61707
C         -1.09649       -0.08017        0.00608
O         -2.15142        0.39796       -0.47762
O         -0.88150       -1.27334        0.33937
