15
id_807_ca.log	Energy: -383405.9556584
C          1.50053       -1.40908        0.06439
H          2.09188       -2.31587        0.11206
C          0.11976       -1.43322        0.05674
H         -0.41231       -2.37612        0.09767
C         -0.61498       -0.24333        0.01284
C          0.02739        1.01083       -0.03425
C          1.42608        1.03193       -0.04411
H          1.95849        1.97728       -0.09144
C          2.11557       -0.16165        0.00976
F          3.45806       -0.11179        0.00974
O         -0.67895        2.15465       -0.09266
H         -0.07124        2.91328       -0.15484
N         -2.05856       -0.36081        0.01155
O         -2.54746       -1.45479       -0.25099
O         -2.73928        0.62018        0.27812
