31
id_864_ca.log	Energy: -340810.0921006
C          5.04016       -0.81814       -0.80050
H          4.96166       -0.57940       -1.86758
H          5.57882       -1.76707       -0.70786
H          5.64963       -0.03864       -0.32856
C          3.65795       -0.89081       -0.15686
H          3.75829       -1.15598        0.90416
H          3.07416       -1.69434       -0.62550
C          2.88690        0.42242       -0.27391
H          2.78238        0.68696       -1.33629
H          3.47316        1.22826        0.19130
C          1.50362        0.36645        0.37125
H          1.60791        0.10444        1.43397
H          0.92133       -0.44181       -0.09455
C          0.74276        1.68480        0.25104
H          0.63093        1.94588       -0.81083
H          1.33492        2.48567        0.71307
C         -0.64696        1.66617        0.90781
H         -1.08184        2.66962        0.83802
H         -0.54123        1.43321        1.97269
C         -1.59142        0.68887        0.24954
C         -2.27549        1.04279       -0.91771
H         -2.13155        2.04625       -1.31433
C         -3.12807        0.15443       -1.57328
H         -3.64674        0.46050       -2.47679
C         -3.31077       -1.12644       -1.05228
H         -3.97264       -1.83284       -1.54502
C         -2.64447       -1.50650        0.11086
H         -2.77827       -2.50118        0.53022
C         -1.79120       -0.60552        0.75091
O         -1.11811       -0.95598        1.89813
H         -1.33415       -1.87281        2.13763
