17
id_8_ca.log	Energy: -467359.4537379
C         -2.76256       -1.56393        0.00001
H         -2.33557       -2.02519        0.89642
H         -2.33558       -2.02521       -0.89640
H         -3.84440       -1.69399        0.00002
O         -2.54075       -0.15740       -0.00001
C         -1.24778        0.28233       -0.00000
C         -1.07357        1.67209        0.00000
H         -1.94797        2.31548        0.00000
C          0.21192        2.19523        0.00000
H          0.35148        3.27242        0.00001
C          1.33221        1.35977        0.00000
H          2.33163        1.78445        0.00001
C          1.14422       -0.02175       -0.00000
C         -0.14495       -0.57199       -0.00001
H         -0.27359       -1.64928       -0.00001
S          2.50903       -1.16236        0.00000
H          3.47864       -0.23221       -0.00004
