29
id_850_cb.log	Energy: -612871.3839934
C          2.58885       -1.27009       -1.30301
H          3.51182       -1.86336       -1.30556
H          2.61170       -0.60863       -2.17757
H          1.74243       -1.95143       -1.40854
C          2.50461       -0.44335       -0.00679
C          3.77258        0.41923        0.05481
H          3.81793        1.01995        0.97047
H          3.85250        1.09435       -0.80495
H          4.64919       -0.23825        0.04432
C          2.53910       -1.37727        1.21652
H          3.46183       -1.97079        1.20522
H          1.69054       -2.06391        1.23090
H          2.52677       -0.79248        2.14433
C          1.22571        0.40648        0.00506
C          1.28681        1.79453        0.06571
H          2.25763        2.27874        0.10414
C          0.15393        2.62658        0.07587
H          0.26404        3.70546        0.11858
C         -1.09754        2.03802        0.02197
H         -1.99836        2.64914        0.02129
C         -1.20790        0.64373       -0.02893
C         -0.07435       -0.23900       -0.04994
O         -0.22324       -1.51372       -0.11651
S         -2.87373        0.03584       -0.10370
O         -3.04385       -0.89417       -1.32913
C         -2.92780       -1.06152        1.32817
H         -3.93280       -1.48865        1.36415
H         -2.74727       -0.46271        2.22483
H         -2.17549       -1.84180        1.21607
