18
id_81_cb.log	Energy: -241869.7183015
C         -2.56582       -0.14598       -0.37985
H         -3.59029       -0.26166       -0.72232
C         -1.96243        1.11368       -0.37774
H         -2.51796        1.98360       -0.71793
C         -0.64828        1.25946        0.06559
H         -0.18520        2.24465        0.06742
C          0.09025        0.15596        0.51523
C         -0.52750       -1.10035        0.50769
H          0.02903       -1.96719        0.85740
C         -1.84293       -1.25324        0.06457
H         -2.30288       -2.23789        0.06844
C          1.52715        0.31970        0.93287
H          1.82252       -0.51157        1.58569
H          1.64485        1.25204        1.50123
C          2.48925        0.35517       -0.27669
H          3.49071        0.60276        0.13310
H          2.19475        1.23466       -0.88960
O          2.50704       -0.82072       -1.02417
