17
id_801_ca.log	Energy: -449426.0184577
C          0.88569        2.51743        0.03536
H          1.06157        3.58764        0.05134
C         -0.43668        2.03801        0.03320
H         -1.28631        2.71155        0.01050
C         -0.63074        0.68099        0.00975
C          0.43933       -0.23338       -0.00171
C          1.75625        0.25541       -0.03180
C          1.95393        1.64975       -0.00602
H          2.97715        2.01028       -0.01244
O          2.85703       -0.50572       -0.03900
H          2.62440       -1.44976       -0.15070
N          0.18917       -1.64525        0.16304
O         -0.86231       -1.99611        0.66859
O          1.06512       -2.43361       -0.18931
N         -2.01860        0.22303       -0.15369
O         -2.84290        0.64033        0.63791
O         -2.26412       -0.49907       -1.10280
