31
id_874_ca.log	Energy: -637107.5207370
C         -3.75302        1.19877       -1.06512
H         -4.80521        1.45377       -0.89878
H         -3.67392        0.72704       -2.05110
H         -3.17955        2.13250       -1.08183
C         -3.28042        0.26342        0.05117
C         -3.46701        0.98133        1.39807
H         -4.51667        1.27255        1.52106
H         -2.85194        1.88735        1.44533
H         -3.19474        0.33759        2.24089
C         -4.15326       -1.00256        0.02651
H         -5.20896       -0.72823        0.13639
H         -3.89606       -1.68723        0.84146
H         -4.03556       -1.53874       -0.92223
C         -1.81241       -0.13505       -0.11116
C         -1.21512       -0.98449        0.83676
H         -1.79692       -1.35001        1.67919
C          0.11128       -1.38331        0.72280
H          0.54477       -2.04789        1.46600
C          0.88920       -0.92775       -0.34780
C          0.31793       -0.07948       -1.29404
H          0.91483        0.28790       -2.12477
C         -1.02067        0.30521       -1.17635
H         -1.43325        0.96384       -1.93332
S          2.59668       -1.42799       -0.50737
C          3.34034       -0.37878        0.79733
H          2.88349       -0.60154        1.76238
H          4.40510       -0.62249        0.81827
C          3.13176        1.07151        0.46796
O          2.24536        1.75684        0.94224
O          4.00147        1.53346       -0.43910
H          3.79146        2.46612       -0.64308
