14
id_826_ca.log	Energy: -203360.7917172
C         -1.12122        1.38493        0.38656
H         -1.05613        1.19121        1.46081
H         -2.16112        1.58174        0.11573
H         -0.52369        2.26500        0.14474
C         -0.60222        0.19374       -0.40461
C          0.81918       -0.17695       -0.03361
O          1.13275       -1.25622        0.41646
O          1.65663        0.82810       -0.25941
H          2.55963        0.55076       -0.00703
N         -1.44428       -1.00748       -0.13894
H         -1.41910       -1.25621        0.85872
H         -1.11127       -1.82332       -0.66699
H         -0.64674        0.38521       -1.47899
H         -2.42112       -0.82737       -0.40088
