18
id_836_cb.log	Energy: -252112.8650061
C          1.08399       -0.73313        1.39527
H          1.86024       -1.45702        1.66641
H          0.12757       -1.11138        1.77517
H          1.31226        0.20327        1.91929
C          1.05514       -0.52821       -0.12088
H          0.82459       -1.49241       -0.59041
C          2.42016       -0.06950       -0.63058
H          3.17736       -0.83687       -0.43405
H          2.73975        0.85197       -0.13306
H          2.39868        0.11753       -1.71053
C         -0.06959        0.43624       -0.55063
C         -1.43422       -0.18343       -0.18305
O         -2.12684        0.36404        0.71887
O         -1.76751       -1.23052       -0.81303
N          0.14680        1.78287       -0.02279
H         -0.00876        1.75903        0.98524
H         -0.59405        2.38422       -0.38123
H         -0.04335        0.50151       -1.64477
