27
id_873_cb.log	Energy: -588865.4344876
C         -2.89371       -2.29906        0.89625
H         -3.41455       -3.25176        0.75176
H         -3.47800       -1.69301        1.59709
H         -1.92500       -2.51152        1.36200
C         -2.71875       -1.55976       -0.43564
H         -3.70590       -1.36145       -0.86854
H         -2.19199       -2.21381       -1.14442
C         -1.97530       -0.25561       -0.28981
C         -2.62569        0.97622       -0.21560
H         -3.71184        0.99201       -0.30283
C         -1.94588        2.18934       -0.03688
H         -2.50842        3.11962        0.00962
C         -0.53730        2.25854        0.07832
C          0.14345        0.99779        0.00074
C         -0.57586       -0.19892       -0.17317
S          0.52203       -1.56846       -0.24362
C          1.92867       -0.52931       -0.04509
C          1.56824        0.77489        0.06948
H          2.28690        1.57779        0.20025
C          3.29930       -1.14495       -0.02032
H          3.34760       -1.88549        0.78827
H          3.46141       -1.70163       -0.95218
C          4.41167       -0.11632        0.16115
H          5.38539       -0.61449        0.17182
H          4.29778        0.42745        1.10457
H          4.41230        0.61362       -0.65485
O          0.11485        3.38011        0.23735
