18
id_847_cb.log	Energy: -912299.5567274
C          1.16642       -1.56053       -0.34699
H          1.35031       -2.62330       -0.46562
C         -0.12492       -1.05928       -0.49645
H         -0.92715       -1.75071       -0.72838
C         -0.38127        0.30600       -0.34648
C          0.69197        1.15538       -0.03622
C          1.98304        0.67030        0.11747
H          2.79575        1.34852        0.35574
C          2.20642       -0.69332       -0.04172
Cl         3.82899       -1.31527        0.15192
Cl         0.40025        2.86075        0.15935
O         -1.60045        0.88360       -0.48670
C         -2.70435        0.05178       -0.81646
H         -3.51297        0.74052       -1.07245
H         -2.48208       -0.55746       -1.69883
C         -3.18687       -0.83931        0.33741
O         -2.68784       -0.67452        1.47760
O         -4.08968       -1.66120        0.02093
