26
id_885_cb.log	Energy: -409345.6052383
C         -4.95195        0.59359       -0.36404
H         -4.74959        1.54764        0.13411
H         -5.98656        0.30018       -0.18698
H         -4.77707        0.69289       -1.44054
O         -4.15181       -0.44564        0.18696
C         -2.79052       -0.30609        0.09730
C         -2.15307        0.77968       -0.50630
H         -2.72194        1.58617       -0.95545
C         -0.75747        0.82544       -0.53689
H         -0.27482        1.67084       -1.01777
C          0.03020       -0.18924        0.01904
C         -0.64001       -1.26972        0.61877
H         -0.06218       -2.07124        1.07271
C         -2.02721       -1.33428        0.65894
H         -2.53419       -2.17119        1.13123
C          1.51410       -0.16011       -0.04921
C          2.19995       -1.32529       -0.41530
H          1.61626       -2.21118       -0.66167
C          3.59145       -1.38357       -0.49523
H          4.09027       -2.30111       -0.79261
C          4.32163       -0.22917       -0.19367
H          5.40820       -0.24090       -0.25033
C          3.66961        0.93921        0.18034
H          4.24348        1.83124        0.42467
C          2.25058        1.03079        0.27661
O          1.67737        2.13803        0.66311
