15
id_803_ca.log	Energy: -897915.4779837
C         -0.70676       -1.22242       -0.00000
H         -1.24510       -2.16307       -0.00001
C         -1.38041       -0.00836       -0.00000
C         -0.72434        1.21741       -0.00000
H         -1.27846        2.14883       -0.00000
C          0.65801        1.21371        0.00000
C          1.39150        0.01480        0.00001
C          0.67629       -1.19427       -0.00000
Cl         1.56721       -2.68598       -0.00001
O          2.72884        0.09387        0.00002
H          3.14501       -0.78833        0.00001
Cl         1.52469        2.71432        0.00000
N         -2.83686       -0.02080        0.00000
O         -3.40624       -1.10242        0.00004
O         -3.42404        1.05119       -0.00003
