12
id_817_cb.log	Energy: -202792.8326112
C          1.96165        0.26661        0.65194
H          1.27074        0.95198        1.16440
H          2.88534        0.80895        0.43613
H          2.20113       -0.55027        1.33944
N          1.41630       -0.29072       -0.58758
H          1.26964        0.48516       -1.23279
C          0.11231       -0.89576       -0.35131
H         -0.20450       -1.44466       -1.24654
H          0.19921       -1.63061        0.45498
C         -1.03504        0.07038       -0.01568
O         -0.91051        1.28360       -0.33797
O         -2.06063       -0.43771        0.52393
