19
id_845_ca.log	Energy: -398069.2575898
C         -0.37059       -0.62135        0.53889
H          0.44627       -1.24483        0.88620
C         -1.64113       -1.19088        0.42060
H         -1.80834       -2.23448        0.66685
C         -2.68839       -0.40481       -0.02017
C         -2.52910        0.93329       -0.35048
H         -3.37793        1.51680       -0.69218
C         -1.26497        1.49724       -0.23100
H         -1.09822        2.54115       -0.47803
C         -0.18911        0.72267        0.21253
O          1.01537        1.38742        0.29694
C          2.13841        0.67581        0.75883
H          2.91654        1.41768        0.95791
H          1.93585        0.13562        1.69001
C          2.66818       -0.27882       -0.29154
O          2.25539       -0.35490       -1.42913
O          3.66996       -1.01683        0.19194
H          4.01556       -1.60025       -0.51245
F         -3.92170       -0.96179       -0.13581
