23
id_83_ca.log	Energy: -683457.4491629
C         -4.76617        0.13196        0.00013
H         -5.13362        0.65733        0.88800
H         -5.20199       -0.86996       -0.01571
H         -5.12490        0.68094       -0.87704
C         -3.26613        0.06292        0.00642
C         -2.56568       -1.11662       -0.01792
H         -3.08268       -2.07370       -0.04219
C         -1.14693       -1.09720       -0.01070
C         -0.35880       -2.27694       -0.03353
H         -0.85742       -3.24195       -0.05751
C          1.01154       -2.20842       -0.02542
H          1.61940       -3.10689       -0.04354
C          1.63923       -0.94209        0.00627
C          0.91403        0.22244        0.02963
C         -0.50635        0.16531        0.02158
N         -1.19832        1.34172        0.04870
C         -2.51027        1.27019        0.04040
H         -3.04546        2.21848        0.06200
C          1.57878        1.56370        0.09070
O          1.93781        2.09065        1.12264
O          1.73677        2.10744       -1.11627
H          2.16972        2.98125       -1.02836
Cl         3.38289       -0.87492        0.00453
