27
id_887_ca.log	Energy: -409649.4930949
C          1.13852       -1.35034        1.40299
H          0.46502       -2.20499        1.38183
C          1.65275       -0.92007        2.62245
H          1.39593       -1.42481        3.54951
C          2.51541        0.17669        2.65499
C          2.86390        0.83222        1.47588
H          3.54193        1.68180        1.51007
C          2.33988        0.38530        0.26195
H          2.61680        0.89918       -0.65605
C          1.47045       -0.70650        0.20449
C          0.85941       -1.15523       -1.10735
H          0.83230       -2.24973       -1.14307
H          1.49223       -0.81207       -1.93311
C         -0.54571       -0.61845       -1.29047
C         -0.75575        0.70428       -1.69988
H          0.10103        1.33755       -1.92207
C         -2.03891        1.22635       -1.83108
H         -2.19768        2.25157       -2.15331
C         -3.14128        0.41882       -1.54629
C         -2.95889       -0.90101       -1.13810
H         -3.82321       -1.52469       -0.92286
C         -1.66429       -1.40797       -1.01420
H         -1.52745       -2.43989       -0.69822
O         -4.39078        0.97843       -1.68972
H         -5.07329        0.32495       -1.46179
O          2.99756        0.56895        3.88306
H          3.58011        1.33968        3.77635
