13
id_88_ca.log	Energy: -2383085.2633837
C         -0.36495       -1.21015       -0.00001
H         -0.88964       -2.15915       -0.00001
C         -1.04898       -0.00260       -0.00001
C         -0.37343        1.21191       -0.00001
H         -0.90800        2.15535       -0.00001
C          1.01432        1.20267       -0.00000
C          1.74861        0.01094       -0.00000
C          1.02383       -1.18559       -0.00000
Cl         1.90042       -2.68966        0.00000
O          3.09793        0.08455       -0.00000
H          3.50123       -0.80248        0.00003
Cl         1.87657        2.70973        0.00000
Br        -2.93406       -0.01070        0.00000
