34
id_881_ca.log	Energy: -375812.3893999
C         -4.46872        0.04142       -0.65570
H         -5.33267        0.09858        0.00725
H         -4.52873       -0.84812       -1.28405
H         -4.40214        0.93907       -1.27168
N         -3.23364       -0.05136        0.18171
C         -3.13647        1.17298        1.03140
H         -4.07045        1.27526        1.58526
H         -2.98308        2.03558        0.38117
H         -2.30537        1.06343        1.72680
C         -3.33801       -1.25719        1.05761
H         -4.25611       -1.17339        1.64047
H         -2.47857       -1.29256        1.72568
H         -3.36980       -2.14408        0.42319
C         -2.04882       -0.15913       -0.75148
H         -2.21534       -1.06807       -1.33741
H         -2.11740        0.70521       -1.41837
C         -0.69163       -0.19586       -0.06915
H         -0.51965        0.72432        0.49802
H         -0.62194       -1.04023        0.62461
C          0.40520       -0.34161       -1.13589
H          0.30317        0.46468       -1.87184
H          0.26961       -1.29006       -1.66706
C          1.78069       -0.31070       -0.52087
C          2.50400       -1.48170       -0.28521
H          2.06530       -2.43057       -0.58671
C          3.76259       -1.45722        0.31837
H          4.30412       -2.38282        0.48806
C          4.31608       -0.23505        0.69696
H          5.29469       -0.19637        1.16662
C          3.61599        0.94990        0.47257
H          4.03733        1.90990        0.76133
C          2.35906        0.90628       -0.13013
O          1.63295        2.04874       -0.36902
H          2.13909        2.82725       -0.08207
