24
id_855_cb.log	Energy: -431902.3208003
C         -4.49790       -1.14809        0.00002
H         -4.70615       -2.21655        0.00002
H         -4.91114       -0.67850       -0.89490
H         -4.91113       -0.67851        0.89494
O         -3.06732       -1.03748        0.00001
C         -2.57134        0.20503        0.00001
O         -3.29290        1.19065        0.00001
C         -1.08301        0.25527       -0.00000
C         -0.33778       -0.90837        0.00001
H         -0.80806       -1.88592        0.00002
C          1.07849       -0.81345        0.00000
C          1.89205       -1.98249        0.00001
H          1.40228       -2.95375        0.00002
C          3.26366       -1.89208        0.00001
H          3.86982       -2.79371        0.00001
C          3.89153       -0.62240       -0.00001
H          4.97592       -0.55714       -0.00001
C          3.12834        0.52431       -0.00001
H          3.60628        1.49938       -0.00002
C          1.71262        0.46320       -0.00001
C          0.91897        1.68954       -0.00002
C         -0.47622        1.53021       -0.00001
H         -1.09916        2.42002       -0.00002
O          1.49332        2.85192       -0.00003
