14
id_818_ca.log	Energy: -203354.7186993
C         -2.04168        0.36360        0.65022
H         -2.94022        0.86164        0.29114
H         -1.35228        1.08629        1.08335
H         -2.29296       -0.41326        1.37037
N         -1.37274       -0.28548       -0.51501
H         -1.18755        0.42727       -1.23376
C         -0.09120       -0.94943       -0.17120
H         -0.21130       -1.49785        0.76425
H          0.17330       -1.64813       -0.96762
C          0.98600        0.10222       -0.05710
O          0.82462        1.25717       -0.38284
O          2.11475       -0.41098        0.41356
H          2.79445        0.29177        0.44833
H         -2.00794       -0.97719       -0.92828
