25
id_842_ca.log	Energy: -291497.8743152
C         -3.75288       -0.30180        0.17013
H         -4.10545       -1.33292        0.25947
H         -4.22849        0.14881       -0.70755
H         -4.09835        0.25416        1.04859
C         -2.25091       -0.25212        0.05770
C         -1.47338       -1.41049        0.12147
H         -1.95462       -2.37675        0.24991
C         -0.08303       -1.33689        0.01974
H          0.49297       -2.25663        0.07074
C          0.58850       -0.12240       -0.14609
C         -0.21060        1.03362       -0.21102
C         -1.59831        0.97109       -0.11382
H         -2.16652        1.89701       -0.17432
O          0.32212        2.29525       -0.37000
H          1.28447        2.25221       -0.48845
C          2.10470       -0.02892       -0.19636
H          2.38248        0.74052       -0.93204
C          2.65592        0.39987        1.17241
H          2.21968        1.34737        1.50817
H          3.74382        0.52064        1.12800
H          2.42450       -0.36546        1.92247
C          2.77803       -1.32476       -0.64835
H          2.66150       -2.11689        0.09942
H          3.85080       -1.15231       -0.78146
H          2.36802       -1.68482       -1.59786
