30
id_853_cb.log	Energy: -350861.5693209
C          3.12150       -1.17311       -0.69893
H          4.20136       -1.04496       -0.78607
H          2.65925       -1.11806       -1.68425
H          2.88836       -2.12450       -0.21755
N          2.58916       -0.07041        0.15390
C          2.82278        1.24319       -0.51849
H          3.89825        1.36984       -0.65075
H          2.42134        2.03261        0.11842
H          2.32833        1.24760       -1.48871
C          3.31471       -0.07319        1.46034
H          3.17824       -1.04815        1.92975
H          2.89728        0.71525        2.08819
H          4.37234        0.11242        1.26907
C          1.11715       -0.27356        0.43872
H          1.05631       -1.14925        1.09061
H          0.80301        0.60883        1.00173
C          0.23791       -0.47659       -0.79319
H          0.47394        0.26659       -1.56258
H          0.41114       -1.47097       -1.21551
C         -1.20663       -0.33606       -0.38041
C         -2.01187       -1.45896       -0.19559
H         -1.58091       -2.44276       -0.38005
C         -3.34533       -1.35406        0.21209
H         -3.95471       -2.24273        0.34662
C         -3.87135       -0.07901        0.43934
H         -4.90590        0.03220        0.75778
C         -3.08656        1.05696        0.26211
H         -3.50576        2.04561        0.44002
C         -1.72844        0.97810       -0.15234
O         -0.99365        2.04763       -0.32200
