19
id_811_cb.log	Energy: -473817.1670920
C         -0.32417        3.30331       -0.00001
H         -0.90257        3.60509        0.88028
H         -0.90258        3.60508       -0.88029
H          0.62358        3.84696       -0.00002
C         -0.08272        1.82282       -0.00000
C          1.17594        1.29988       -0.00001
H          2.03982        1.95678       -0.00001
C          1.37023       -0.10675       -0.00000
C          0.30476       -0.98006        0.00000
H          0.46619       -2.05055        0.00001
C         -0.99059       -0.46786        0.00001
C         -1.26906        0.96146        0.00001
O         -2.41017        1.47999        0.00001
N         -2.04619       -1.43684        0.00001
O         -3.21911       -1.06862        0.00000
O         -1.75258       -2.63793        0.00001
N          2.69721       -0.63556       -0.00000
O          3.64516        0.15164       -0.00001
O          2.86321       -1.85676       -0.00000
