31
id_860_ca.log	Energy: -340812.2647680
C          2.51035        2.66586       -0.00000
H          3.58847        2.48094        0.00004
H          2.27026        3.26995        0.88195
H          2.27033        3.26991       -0.88200
C          1.73921        1.36931        0.00000
C          2.38739        0.13717        0.00000
H          3.47537        0.09769        0.00000
C          1.67225       -1.06309        0.00000
C          0.27206       -1.01254       -0.00000
C         -0.43211        0.20978        0.00000
C          0.33974        1.37702        0.00000
H         -0.15643        2.34284        0.00000
C         -1.96694        0.26164        0.00000
C         -2.52461       -0.42089        1.26211
H         -3.61891       -0.34978        1.26395
H         -2.15210        0.07908        2.16396
H         -2.25221       -1.47680        1.31619
C         -2.52461       -0.42089       -1.26211
H         -3.61891       -0.34979       -1.26395
H         -2.25220       -1.47680       -1.31619
H         -2.15210        0.07908       -2.16396
C         -2.48723        1.70488        0.00000
H         -2.16414        2.25780        0.88906
H         -3.58243        1.68362        0.00000
H         -2.16414        2.25780       -0.88906
O         -0.44901       -2.18693       -0.00001
H          0.15613       -2.94628       -0.00002
C          2.38373       -2.39198        0.00001
H          2.13185       -2.98940       -0.88539
H          2.13182       -2.98942        0.88538
H          3.46607       -2.24262        0.00002
