31
id_853_ca.log	Energy: -351154.2108561
C          3.12757       -1.06471       -0.84399
H          4.20575       -0.92078       -0.92532
H          2.65351       -0.87718       -1.80719
H          2.90277       -2.07328       -0.49310
N          2.60523       -0.08652        0.15655
C          2.81253        1.30576       -0.34653
H          3.88108        1.44948       -0.51217
H          2.44671        2.00324        0.40826
H          2.27366        1.43541       -1.28449
C          3.35995       -0.24889        1.43768
H          3.25386       -1.28092        1.77325
H          2.94055        0.43818        2.17394
H          4.40853       -0.01354        1.25121
C          1.14361       -0.33293        0.44577
H          1.09478       -1.26114        1.02073
H          0.82958        0.49358        1.09003
C          0.25853       -0.44773       -0.79689
H          0.50889        0.31806       -1.54087
H          0.41897       -1.41594       -1.27808
C         -1.19086       -0.33764       -0.38553
C         -1.97470       -1.48306       -0.21512
H         -1.52157       -2.45220       -0.41232
C         -3.30425       -1.40560        0.19500
H         -3.89015       -2.31100        0.31905
C         -3.87183       -0.15467        0.44155
H         -4.90720       -0.07476        0.75981
C         -3.11371        1.00130        0.27906
H         -3.53784        1.98420        0.46346
C         -1.78250        0.90847       -0.12784
O         -1.09797        2.09567       -0.25051
H         -0.20074        1.95701       -0.59688
