14
id_820_ca.log	Energy: -203354.7186742
C          2.04169       -0.36358       -0.65023
H          2.94022       -0.86163       -0.29115
H          2.29297        0.41331       -1.37035
H          1.35229       -1.08627       -1.08339
N          1.37274        0.28546        0.51502
H          2.00793        0.97715        0.92833
H          1.18752       -0.42732        1.23373
C          0.09120        0.94942        0.17122
H         -0.17328        1.64811        0.96766
H          0.21132        1.49788       -0.76422
C         -0.98601       -0.10221        0.05709
O         -0.82462       -1.25717        0.38283
O         -2.11475        0.41099       -0.41357
H         -2.79446       -0.29176       -0.44831
