12
id_800_cb.log	Energy: -3419485.4455956
C         -0.00002       -2.51416        0.00000
H         -0.00008       -3.59919        0.00000
C         -1.19990       -1.80287        0.00000
H         -2.14965       -2.32986        0.00000
C         -1.18674       -0.41630        0.00000
C          0.00000        0.38957        0.00000
C          1.18670       -0.41631        0.00000
C          1.19985       -1.80290        0.00000
H          2.14963       -2.32986        0.00000
Br         2.85264        0.49001        0.00000
O         -0.00001        1.66651        0.00000
Br        -2.85262        0.49013        0.00000
