16
id_8_cb.log	Energy: -467071.9942148
C          2.39224        2.04880        0.00000
H          1.88637        2.42512        0.89554
H          1.88637        2.42512       -0.89554
H          3.43028        2.38171        0.00000
O          2.43872        0.62795        0.00000
C          1.24163       -0.05074        0.00000
C          1.33945       -1.44763        0.00000
H          2.31766       -1.91888        0.00000
C          0.16303       -2.19165        0.00000
H          0.22095       -3.27762        0.00000
C         -1.08653       -1.57104        0.00000
H         -1.98954       -2.17532        0.00000
C         -1.20155       -0.16572        0.00000
C          0.00000        0.58256        0.00000
H         -0.06766        1.66475        0.00000
S         -2.76774        0.63901        0.00000
