30
id_862_cb.log	Energy: -340516.5797020
C          3.24487       -1.59335        0.91899
H          2.53432       -2.05724        1.61245
H          3.60518       -0.66577        1.37640
H          4.09930       -2.27004        0.80549
C          2.57281       -1.31300       -0.43061
H          2.21812       -2.25893       -0.85733
H          3.32212       -0.91031       -1.12381
C          1.41462       -0.35334       -0.31307
C          0.09971       -0.82231       -0.30803
H         -0.04748       -1.89707       -0.41884
C         -1.02302        0.00590       -0.17431
C         -0.79252        1.38873       -0.03171
C          0.51739        1.87394       -0.03845
H          0.68512        2.94608        0.06579
C          1.66134        1.04533       -0.17435
O          2.87754        1.54813       -0.17848
C         -1.93744        2.36528        0.11964
H         -1.55852        3.37749        0.28823
H         -2.58885        2.10482        0.96176
H         -2.56907        2.38991       -0.77656
C         -2.43087       -0.56737       -0.12192
H         -3.12092        0.20250       -0.48910
C         -2.83080       -0.89643        1.32387
H         -2.74123       -0.01997        1.97520
H         -2.17789       -1.68222        1.72431
H         -3.86580       -1.25579        1.37479
C         -2.62424       -1.80339       -1.00472
H         -3.68169       -2.08992       -1.02213
H         -2.05960       -2.66235       -0.62500
H         -2.30452       -1.61612       -2.03586
