32
id_893_cb.log	Energy: -505269.2109066
C          0.19647       -1.11310        2.35955
H         -0.74052       -1.63316        2.12754
H          0.27130       -1.03111        3.44855
H          1.02547       -1.74413        2.02152
C          0.24008        0.27611        1.72517
H          1.21866        0.73334        1.91087
H         -0.49630        0.92155        2.21299
C         -0.03140        0.28755        0.20377
C          0.95557       -0.63731       -0.52179
H          0.77344       -0.61491       -1.60321
H          0.84526       -1.67562       -0.20122
C          2.39529       -0.23636       -0.33560
O          2.79960        0.90092       -0.17321
O          3.22018       -1.28817       -0.40902
C          4.62475       -1.00100       -0.31731
H          4.84947       -0.53536        0.64419
H          4.92608       -0.34212       -1.13404
H          5.12471       -1.96429       -0.40030
C         -1.48023       -0.14397       -0.05943
C         -1.82373       -1.29997       -0.76785
H         -1.05491       -1.94655       -1.17828
C         -3.16263       -1.65357       -0.96123
H         -3.40064       -2.55947       -1.51199
C         -4.18387       -0.85438       -0.45484
H         -5.22384       -1.12897       -0.60608
C         -3.85515        0.30670        0.24857
H         -4.63972        0.94497        0.64560
C         -2.52093        0.65351        0.44289
H         -2.28427        1.56400        0.98898
C          0.09688        1.72902       -0.38210
O          0.12385        2.70029        0.41847
O          0.11878        1.82850       -1.64173
