51
id_85_ca.log	Energy: -866971.3811554
C         -5.60507       -1.86625        1.48443
H         -6.64826       -1.92691        1.16133
H         -5.56111       -1.36103        2.45506
H         -5.22072       -2.88268        1.60338
C         -4.76628       -1.13178        0.45727
C         -3.31229       -0.99645        0.87861
H         -2.88614       -1.99733        0.95649
H         -3.26080       -0.52281        1.87322
N         -2.56411       -0.20189       -0.10043
C         -3.09854        1.15236       -0.21879
H         -3.07628        1.69104        0.74096
H         -2.51432        1.71491       -0.95005
C         -4.53778        1.09135       -0.71086
N         -5.32311        0.25327        0.26231
H         -6.29948        0.18770       -0.05344
H         -5.34520        0.73494        1.17422
C         -5.17482        2.46321       -0.81064
H         -6.21577        2.38408       -1.13739
H         -4.62760        3.06182       -1.54366
H         -5.14229        2.97858        0.15498
C         -1.18087       -0.40865       -0.12958
C         -0.69140       -1.65346       -0.52311
C          0.65349       -2.00288       -0.57083
C          1.60748       -0.99361       -0.25198
C          1.14896        0.30855        0.08056
C         -0.22194        0.55319        0.19653
F         -0.65893        1.71349        0.73487
N          2.08530        1.32200        0.32718
C          3.38576        1.02236        0.43338
H          4.02717        1.86227        0.67214
C          3.90767       -0.23574        0.24351
C          3.04072       -1.31243       -0.19717
O          3.47020       -2.44289       -0.50238
C          5.35002       -0.43766        0.43498
O          5.93888       -1.50463        0.36787
O          6.01204        0.70501        0.71632
C          1.70538        2.73316        0.34329
H          1.33493        3.07500        1.30241
C          1.10797        3.31314       -0.89614
H          1.00500        2.64872       -1.74932
H          0.30677        4.03207       -0.76386
C          2.50771        3.68438       -0.48883
H          2.68771        4.66584       -0.06397
H          3.32067        3.28070       -1.08439
N          0.97830       -3.26593       -0.99784
H          0.26048       -3.97108       -0.87800
H          1.92883       -3.55974       -0.80728
F         -1.58228       -2.60689       -0.88371
H         -4.82756       -1.61206       -0.52308
H         -4.59101        0.55953       -1.66408
H          6.95532        0.48839        0.84314
