22
id_833_ca.log	Energy: -937239.3973491
C          3.67776        0.78489       -0.89234
H          3.47704        1.45445       -1.73186
H          4.54193        0.16248       -1.13507
H          3.89969        1.37849       -0.00087
C          2.45742       -0.09168       -0.65179
C          2.71102       -1.01465        0.53244
O          2.26389       -0.84206        1.64643
O          3.51698       -2.02387        0.19840
H          3.70234       -2.57314        0.98623
O          1.37352        0.77375       -0.36019
C          0.11693        0.25312       -0.29064
C         -0.20840       -1.08326       -0.52824
H          0.55441       -1.80859       -0.78941
C         -1.52982       -1.51707       -0.43846
H         -1.76863       -2.55897       -0.62387
C         -2.52723       -0.60993       -0.11034
C         -2.23298        0.72825        0.13088
H         -3.01266        1.43798        0.38722
C         -0.91320        1.14637        0.03798
Cl        -0.53103        2.81684        0.33659
Cl        -4.18550       -1.14840        0.00661
H          2.24284       -0.69480       -1.54089
