16
id_802_cb.log	Energy: -449148.6952343
C          0.00001       -0.87649        0.00001
H          0.00001       -1.95698        0.00001
C         -1.16740       -0.12284        0.00000
C         -1.20883        1.26136       -0.00000
H         -2.15855        1.78430       -0.00000
C         -0.00000        2.02101       -0.00001
C          1.20883        1.26137       -0.00001
H          2.15854        1.78431       -0.00001
C          1.16740       -0.12283       -0.00000
N          2.44326       -0.85489        0.00000
O          2.41033       -2.07659        0.00005
O          3.48236       -0.21319       -0.00005
O         -0.00003        3.30801       -0.00001
N         -2.44326       -0.85490        0.00000
O         -3.48236       -0.21321        0.00000
O         -2.41032       -2.07660        0.00001
