15
id_806_ca.log	Energy: -609535.4369652
C         -0.95162        1.49700       -0.00000
H         -1.77015        2.20696        0.00000
C          0.36095        1.93205       -0.00000
H          0.59851        2.99055       -0.00001
C          1.41603        1.01212       -0.00000
C          1.12690       -0.36269        0.00000
C         -0.17957       -0.81805        0.00000
H         -0.39796       -1.87991        0.00000
C         -1.20066        0.12573       -0.00000
N         -2.57590       -0.34440       -0.00000
O         -2.78107       -1.55113       -0.00003
O         -3.47378        0.48712        0.00003
Cl         2.44169       -1.50307        0.00001
O          2.67005        1.50557       -0.00001
H          3.33839        0.79591       -0.00000
