28
id_857_cb.log	Energy: -433407.8167078
C          3.42730       -2.40818       -0.49639
H          4.27440       -2.40890        0.19765
H          3.83890       -2.38399       -1.51181
H          2.88523       -3.35038       -0.37580
C          2.52245       -1.22743       -0.25022
C          3.04452        0.07219       -0.19375
H          4.11641        0.22247       -0.31523
C          2.23704        1.18507        0.02216
C          0.85469        0.98884        0.17254
C          0.29133       -0.29262        0.11152
C          1.14996       -1.38668       -0.08284
H          0.72087       -2.38613       -0.11864
C         -1.17343       -0.52413        0.28455
C         -2.04933        0.15344       -0.47872
H         -1.67382        0.86590       -1.21368
C         -3.55280        0.07540       -0.41233
O         -4.11102       -1.04580       -0.25832
O         -4.16222        1.17781       -0.54898
C         -1.55178       -1.52777        1.34407
H         -2.60365       -1.45089        1.62100
H         -0.93183       -1.38269        2.23459
H         -1.36910       -2.54848        0.98581
O          0.10959        2.12140        0.40919
H         -0.82620        1.87699        0.52426
C          2.80477        2.57553        0.10702
H          2.36493        3.23193       -0.65198
H          3.88762        2.55577       -0.03975
H          2.59716        3.02930        1.08262
