24
id_871_cb.log	Energy: -465801.6052111
C         -4.61534       -0.51406        0.05633
H         -5.67255       -0.76055        0.09096
C         -4.15535        0.69092        0.58850
H         -4.85314        1.38548        1.04794
C         -2.79833        1.00705        0.54429
H         -2.45319        1.93972        0.98309
C         -1.87233        0.12582       -0.03502
C         -2.34885       -1.08004       -0.57246
H         -1.65427       -1.76677       -1.04941
C         -3.70453       -1.39857       -0.52353
H         -4.05117       -2.33563       -0.95030
C         -0.42809        0.46052       -0.07319
C          0.01097        1.80953       -0.23301
H         -0.72919        2.59784       -0.35051
C          1.33719        2.13529       -0.26859
H          1.65124        3.16637       -0.40714
C          2.39752        1.15949       -0.14101
C          1.91822       -0.19453        0.02936
C          0.53936       -0.51004        0.05240
H          0.25664       -1.54600        0.20229
N          2.81705       -1.27722        0.18779
O          2.36960       -2.43705        0.23913
O          4.03377       -1.07439        0.27889
O          3.60956        1.52542       -0.19625
