22
id_832_cb.log	Energy: -407379.8133686
C          2.39401        2.45302        0.12085
H          3.35049        2.93353       -0.08256
H          2.10639        2.62491        1.16299
H          1.62717        2.85341       -0.54975
O          2.59591        1.06419       -0.12056
C          1.52512        0.23289        0.06501
C          0.25364        0.63010        0.46430
H          0.04127        1.67730        0.65634
C         -0.76600       -0.32071        0.62601
C         -0.48544       -1.66474        0.38313
H         -1.26772       -2.40932        0.50745
C          0.79173       -2.06758       -0.01830
H          1.01864       -3.11327       -0.20579
C          1.79389       -1.12450       -0.17715
O          3.05166       -1.52011       -0.56551
H          3.62397       -0.73338       -0.61418
C         -2.16233        0.11625        1.00458
H         -2.11812        1.04342        1.58516
H         -2.64852       -0.65443        1.60756
C         -3.00091        0.37844       -0.25637
O         -3.93562       -0.42808       -0.52310
O         -2.68642        1.38134       -0.95828
