30
id_859_ca.log	Energy: -387264.0148959
C          1.11223        2.61733       -1.21882
H          0.89956        2.10235       -2.16313
H          2.17843        2.86680       -1.20055
H          0.54029        3.55170       -1.20642
C          0.72866        1.73604       -0.02502
C         -0.77489        1.42667       -0.04900
H         -1.32558        2.37622       -0.08490
H         -1.01469        0.89180       -0.97863
C         -1.25216        0.61832        1.15640
H         -1.09907        1.20317        2.07092
H         -0.65635       -0.29629        1.26076
C         -2.72683        0.24453        1.05813
H         -3.35570        1.12217        0.87354
H         -3.08530       -0.20626        1.99274
C         -3.00089       -0.76992       -0.01846
O         -2.17263       -1.50085       -0.53099
O         -4.30053       -0.82381       -0.35694
H         -4.42722       -1.52423       -1.02653
C          1.56579        0.47081        0.00352
C          2.48510        0.24358        1.03226
H          2.59165        0.98418        1.82239
C          3.26262       -0.91666        1.06134
H          3.97065       -1.07191        1.87092
C          3.12723       -1.87360        0.05666
H          3.72815       -2.77833        0.07626
C          2.21138       -1.65968       -0.97639
H          2.09736       -2.39997       -1.76376
C          1.43990       -0.49879       -1.00154
H          0.72964       -0.34767       -1.81223
H          0.94474        2.29184        0.89764
