27
id_883_ca.log	Energy: -957906.1164273
C          2.24480       -3.14762        0.04317
H          2.29915       -4.20535        0.28261
C          1.45458       -2.71218       -1.02181
H          0.88991       -3.42740       -1.61232
C          1.37450       -1.35410       -1.32295
H          0.74588       -0.99769       -2.13601
C          2.10918       -0.43737       -0.56844
C          2.91387       -0.86460        0.48741
H          3.49010       -0.13955        1.05345
C          2.97011       -2.22304        0.79593
H          3.59319       -2.55903        1.61932
N          2.02903        0.96478       -0.87247
H          1.73223        1.13870       -1.83686
S          1.07013        1.88753        0.14522
O          1.65504        1.80969        1.48067
O          0.94420        3.18548       -0.51579
C         -0.51602        1.09483        0.18870
C         -0.76001        0.12226        1.15629
H         -0.02319       -0.09948        1.92228
C         -1.97125       -0.56271        1.13120
H         -2.18852       -1.32241        1.87447
C         -2.89667       -0.25757        0.13650
C         -2.65038        0.71049       -0.83493
H         -3.39031        0.92912       -1.59743
C         -1.43892        1.39304       -0.81172
H         -1.22408        2.14849       -1.56148
Cl        -4.41449       -1.11467        0.10474
