14
id_970_cb.log	Energy: -156617.8501983
C          0.12160        1.05532       -0.35683
H          0.21622        2.13230       -0.17847
H          0.11846        0.90224       -1.44414
C         -1.19651        0.56701        0.23505
H         -2.02714        1.17596       -0.14528
H         -1.17075        0.69796        1.32224
N         -1.38427       -0.87122       -0.03601
H         -1.60579       -0.98266       -1.02548
H         -2.20209       -1.20305        0.47182
C          1.32829        0.34185        0.24301
H          1.31997        0.47739        1.33635
H          2.25735        0.78248       -0.13322
O          1.35529       -1.04165       -0.08827
H          0.42105       -1.33594        0.02707
