48
id_990_cb.log	Energy: -616194.9256521
C          1.60779       -4.13392       -0.72908
H          2.04674       -4.83045       -1.44827
H          0.68066       -4.56970       -0.34695
H          2.30775       -4.00768        0.10148
C          1.33474       -2.81496       -1.41241
H          0.64931       -2.92813       -2.25666
H          2.25266       -2.34060       -1.77231
O          0.72393       -1.94334       -0.44041
C          0.41398       -0.71745       -0.86592
O          0.54725       -0.37590       -2.02485
C         -0.26779        0.10159        0.23740
C          0.49134       -0.04831        1.57935
H          0.55893       -1.10864        1.83928
H         -0.11175        0.43426        2.35680
C          1.87422        0.59696        1.60361
H          2.30298        0.47118        2.61437
H          1.76913        1.67373        1.44152
N          2.78880        0.07623        0.58562
C          3.88866        1.01409        0.39071
H          4.45590        1.18918        1.32202
H          3.50254        1.97507        0.03686
H          4.58139        0.62070       -0.35930
C          3.32960       -1.21438        0.99922
H          2.52124       -1.91674        1.20979
H          3.95396       -1.12129        1.90582
H          3.94893       -1.63291        0.19916
C         -1.67687       -0.52336        0.30276
C         -2.18031       -1.15220        1.44166
H         -1.58630       -1.21926        2.34605
C         -3.46418       -1.70217        1.43789
H         -3.84011       -2.18298        2.33584
C         -4.25642       -1.63675        0.29697
H         -5.25364       -2.06562        0.29718
C         -3.75885       -1.01400       -0.84827
H         -4.36617       -0.95586       -1.74629
C         -2.48290       -0.46290       -0.84244
H         -2.10365        0.02637       -1.73635
C         -0.35792        1.58786       -0.12090
C          0.65225        2.24435       -0.83481
H          1.49856        1.68132       -1.21150
C          0.58991        3.61801       -1.05875
H          1.38306        4.10366       -1.61942
C         -0.47729        4.36552       -0.56547
H         -0.52589        5.43541       -0.74318
C         -1.47777        3.72691        0.16273
H         -2.31172        4.29630        0.56181
C         -1.41588        2.35234        0.38249
H         -2.20333        1.86973        0.95463
