32
id_926_cb.log	Energy: -492614.6578935
C         -0.26685       -0.49581        2.13419
H         -0.76535       -0.00561        2.97811
H          0.56664        0.14767        1.83015
H          0.13646       -1.44999        2.48515
C         -1.22179       -0.71775        0.99406
C         -1.80080       -1.97081        0.77398
H         -1.55881       -2.78602        1.45216
C         -2.65718       -2.19753       -0.30413
H         -3.08701       -3.18384       -0.45431
C         -2.95535       -1.16118       -1.18845
H         -3.62148       -1.32834       -2.02962
C         -2.39642        0.09911       -0.98104
H         -2.61554        0.92380       -1.65449
C         -1.53117        0.31147        0.09128
N         -0.98371        1.61609        0.30948
C          0.04143        2.12722       -0.37148
O          0.52302        3.25751       -0.09133
C          0.67016        1.28449       -1.47632
H         -0.08960        0.83917       -2.12264
H          1.26655        1.97569       -2.07825
C          1.55059        0.19950       -0.89111
C          2.68679        0.54093       -0.14695
H          2.95537        1.58919       -0.03185
C          3.46697       -0.44664        0.45240
H          4.34439       -0.16645        1.02864
C          3.12049       -1.79269        0.31400
H          3.72483       -2.56316        0.78433
C          1.99765       -2.14234       -0.43623
H          1.72191       -3.18717       -0.55157
C          1.22012       -1.15056       -1.03654
H          0.33468       -1.42456       -1.60808
O         -1.51989        2.29031        1.37132
