22
id_954_cb.log	Energy: -1048552.5942808
C          0.73292       -1.08840        0.78973
H          1.57208       -0.73550        1.39665
H          0.24013       -1.88230        1.35790
C          1.26660       -1.66946       -0.51675
H          1.85263       -0.94799       -1.08703
H          0.46968       -2.07028       -1.14494
Cl         2.37848       -3.04513       -0.15239
N         -0.23067        0.00023        0.61662
C          0.30255        1.14187       -0.13467
H          0.52201        0.88614       -1.18352
H         -0.46276        1.92261       -0.14990
C          1.55197        1.71209        0.51561
H          2.41713        1.05621        0.41911
H          1.38462        1.95090        1.56614
Cl         2.00650        3.25113       -0.31072
C         -1.47521       -0.46769        0.00016
H         -1.43080       -0.44012       -1.09942
H         -1.64357       -1.50664        0.29760
C         -2.65172        0.36804        0.48161
H         -2.55065        1.42358        0.22991
H         -2.80140        0.25944        1.55528
Cl        -4.16833       -0.19990       -0.31856
