31
id_918_ca.log	Energy: -695332.4744235
C          4.40802       -0.64895       -0.42765
H          5.43224       -0.94934       -0.62849
C          3.47383       -0.62491       -1.46544
H          3.76891       -0.90491       -2.47218
C          2.15942       -0.23977       -1.21317
H          1.43909       -0.22501       -2.02781
C          1.77852        0.12328        0.08481
C          2.71457        0.10150        1.12300
H          2.41704        0.38810        2.12777
C          4.02939       -0.28580        0.86408
H          4.75514       -0.30197        1.67166
P          0.08275        0.61588        0.48619
O         -0.03858        1.16200        1.89257
C         -0.36705        1.85262       -0.79358
H          0.32679        2.68996       -0.67212
H         -0.24864        1.41129       -1.78631
C         -1.78776        2.29895       -0.61488
O         -2.74159        1.79964       -1.18046
O         -1.90408        3.29444        0.27089
H         -2.84886        3.52204        0.37909
C         -1.01091       -0.80509        0.22398
C         -1.27835       -1.31642       -1.05266
H         -0.84614       -0.85685       -1.93796
C         -2.11346       -2.42199       -1.19402
H         -2.32275       -2.81517       -2.18430
C         -2.68244       -3.01918       -0.06706
H         -3.33457       -3.88008       -0.18190
C         -2.41837       -2.51005        1.20369
H         -2.86270       -2.97107        2.08069
C         -1.58273       -1.40306        1.35140
H         -1.37898       -1.00073        2.33986
