40
id_989_ca.log	Energy: -448887.3656787
C         -4.60416       -1.11270       -0.73630
H         -4.49084       -0.89308       -1.79748
H         -4.86597       -0.20960       -0.18376
H         -5.35705       -1.88515       -0.58498
N         -3.30175       -1.61045       -0.21064
C         -3.41199       -1.95241        1.23585
H         -2.50193       -2.45606        1.55705
H         -4.26859       -2.61330        1.36613
H         -3.55718       -1.02432        1.79066
C         -2.20873       -0.61924       -0.48857
H         -2.23360       -0.43778       -1.56650
H         -2.49378        0.29939        0.03140
C         -0.84238       -1.12619       -0.05345
H         -0.76918       -1.12264        1.03919
H         -0.70791       -2.15974       -0.39693
C          0.26609       -0.24508       -0.64835
H          0.14142       -0.25160       -1.73893
C          1.66935       -0.75717       -0.35292
C          2.74479       -0.16119       -1.02485
H          2.54556        0.63630       -1.73776
C          4.05185       -0.57208       -0.79186
H          4.87027       -0.09928       -1.32640
C          4.31048       -1.59065        0.12734
H          5.33015       -1.91386        0.31259
C          3.25126       -2.18827        0.80189
H          3.44006       -2.98186        1.51863
C          1.93833       -1.77471        0.56374
H          1.12920       -2.26008        1.10063
C          0.10891        1.19739       -0.18804
C          0.34082        1.54204        1.14839
H          0.66821        0.77656        1.84916
C          0.16590        2.85245        1.58229
H          0.35071        3.10613        2.62182
C         -0.24203        3.83980        0.68383
H         -0.37589        4.86267        1.02205
C         -0.47313        3.50627       -0.64784
H         -0.78881        4.26821       -1.35413
C         -0.29901        2.19082       -1.07967
H         -0.48155        1.93116       -2.11980
H         -3.06898       -2.47354       -0.71705
