8
id_931_ca.log	Energy:  -60411.1661195
C         -0.75194        0.00000        0.00124
H         -1.00147       -0.00001        1.05972
H         -1.13655       -0.89426       -0.48364
H         -1.13655        0.89428       -0.48362
N          0.73217       -0.00000       -0.12961
H          1.14395       -0.82809        0.31389
H          1.14395        0.82808        0.31391
H          1.01683        0.00001       -1.11480
