37
id_945_cb.log	Energy: -424072.0482769
C         -2.25117       -1.64788        1.91626
H         -1.30573       -2.07762        1.57067
H         -2.79472       -2.41599        2.47481
H         -2.01817       -0.83455        2.61036
C         -3.08179       -1.17438        0.73101
H         -4.06740       -0.81005        1.07229
H         -3.27591       -2.02927        0.07715
N         -2.39905       -0.14058       -0.05599
C         -2.95358       -0.05773       -1.41224
H         -4.05803       -0.04664       -1.37535
H         -2.64811        0.90070       -1.84376
C         -2.46839       -1.17342       -2.32698
H         -2.89548       -1.04939       -3.32672
H         -2.75885       -2.16353       -1.96359
H         -1.37725       -1.14999       -2.41495
C         -2.51154        1.15819        0.61596
H         -3.49350        1.62468        0.42932
H         -2.42991        1.00082        1.69413
C         -1.38652        2.10692        0.19975
H         -1.43469        3.01680        0.80781
H         -1.46316        2.39726       -0.85151
C         -0.06383        1.41907        0.46391
O          0.23186        1.04512        1.58639
C          0.83387        1.19489       -0.73591
H          0.20629        0.71767       -1.50187
H          1.09077        2.18565       -1.13351
C          2.06098        0.37864       -0.44238
C          3.32735        0.96321       -0.40168
H          3.43105        2.02601       -0.60509
C          4.45446        0.19599       -0.10767
H          5.43415        0.66363       -0.08346
C          4.32348       -1.16586        0.15281
H          5.19995       -1.76462        0.38087
C          3.06043       -1.75802        0.11819
H          2.95117       -2.81934        0.32001
C          1.93836       -0.98947       -0.17635
H          0.95322       -1.45001       -0.20481
