47
id_980_cb.log	Energy: -615932.4434769
C         -3.68630        1.06206       -0.14842
H         -4.50025        0.90027        0.56654
H         -4.12678        1.22205       -1.13970
H         -3.16656        1.98351        0.13702
C         -2.69077       -0.10475       -0.16292
C         -1.66775        0.09636       -1.28893
H         -2.12537       -0.22020       -2.23512
H         -1.48325        1.17225       -1.39674
C         -0.32425       -0.63143       -1.15714
H          0.23698       -0.44120       -2.08125
H         -0.48736       -1.71035       -1.10374
C          0.58988       -0.20600        0.02532
C          2.01439       -0.76808       -0.15082
C          3.06617       -0.23377        0.60955
H          2.87210        0.60426        1.27443
C          4.35511       -0.75268        0.52369
H          5.15106       -0.31635        1.12094
C          4.62425       -1.82773       -0.32666
H          5.62951       -2.23305       -0.39788
C          3.58862       -2.37332       -1.08070
H          3.78012       -3.21173       -1.74480
C          2.29512       -1.85064       -0.99080
H          1.51002       -2.30284       -1.58762
C          0.61610        1.32392        0.05961
C         -0.21601        2.08355        0.89009
H         -0.84169        1.59064        1.62666
C         -0.26312        3.47521        0.78399
H         -0.91893        4.03875        1.44238
C          0.51842        4.13922       -0.15995
H          0.48218        5.22187       -0.24142
C          1.34558        3.39470       -1.00218
H          1.95733        3.89393       -1.74871
C          1.38877        2.00587       -0.89124
H          2.03304        1.44075       -1.56140
C          0.16037       -0.87940        1.37550
O         -0.35489       -2.02741        1.29992
O          0.44433       -0.29101        2.45276
N         -3.32478       -1.44127       -0.23950
C         -3.87466       -1.83534        1.05294
H         -4.70293       -1.18513        1.38470
H         -3.09119       -1.81354        1.81608
H         -4.26211       -2.85732        0.98798
C         -4.38003       -1.51658       -1.24590
H         -5.27032       -0.92397       -0.97629
H         -4.69545       -2.55879       -1.35708
H         -4.01836       -1.17046       -2.21773
H         -2.16320       -0.09411        0.79774
