22
id_983_ca.log	Energy: -193760.9516704
C         -0.47539        1.55126       -0.94784
H         -1.09603        2.26609       -0.39696
H         -1.08804        1.09125       -1.73229
H          0.32247        2.10921       -1.44881
C          0.13587        0.51267       -0.00244
C          1.07430        1.21719        0.98245
H          0.54063        1.99684        1.53620
H          1.90005        1.68822        0.43903
H          1.49642        0.51723        1.71143
C         -0.94657       -0.15351        0.84843
H         -1.49921        0.59394        1.42037
H         -0.52368       -0.88242        1.54209
N         -1.96628       -0.89645        0.03618
H         -1.55034       -1.68627       -0.47127
H         -2.42467       -0.28823       -0.65185
C          0.92207       -0.51326       -0.84535
H          1.68253        0.04589       -1.40183
H          0.25832       -0.94934       -1.60205
N          1.58572       -1.60777       -0.14124
H          0.88952       -2.16201        0.35629
H          2.19351       -1.21970        0.57896
H         -2.69934       -1.27726        0.64462
