16
id_9_ca.log	Energy: -420179.2413658
C         -2.68537       -1.35769        0.00488
H         -2.34050       -2.39244       -0.06863
H         -3.36153       -1.15891       -0.83314
H         -3.26971       -1.25668        0.92595
C         -1.52672       -0.39439       -0.00031
C         -1.75348        0.98841        0.00585
H         -2.77406        1.36369        0.00836
C         -0.68266        1.87794        0.00832
H         -0.86608        2.94881        0.01273
C          0.63238        1.41072        0.00418
H          1.46139        2.11319        0.00544
C          0.86650        0.03446       -0.00270
C         -0.21057       -0.86009       -0.00528
H         -0.02660       -1.93283       -0.01122
S          2.50980       -0.64824       -0.01014
H          3.16089        0.52697        0.00252
