42
id_957_ca.log	Energy: -519984.6462895
C         -4.67764        0.13411       -0.68573
H         -4.09881        0.61538       -1.48001
H         -5.35078        0.87772       -0.25286
H         -5.28120       -0.66773       -1.12048
C         -3.76690       -0.39737        0.40001
H         -4.31656       -0.91787        1.18623
H         -3.15819        0.39161        0.84930
N         -2.79631       -1.38736       -0.16982
H         -2.24816       -0.90497       -0.89551
C         -1.89335       -1.99283        0.86210
H         -1.62211       -1.19677        1.55770
H         -2.49192       -2.73018        1.39725
C         -0.67785       -2.64835        0.22493
H         -0.97656       -3.36584       -0.54408
H         -0.15713       -3.19776        1.01926
C          0.33916       -1.69269       -0.37578
O          0.77638       -1.87588       -1.49502
C          0.79519       -0.51253        0.48711
H          0.71846       -0.83027        1.53327
C          2.24094       -0.13861        0.21283
C          3.22206       -0.47513        1.14790
H          2.93411       -0.98694        2.06262
C          4.56031       -0.15927        0.91918
H          5.31027       -0.42422        1.65816
C          4.93153        0.49616       -0.25218
H          5.97265        0.74543       -0.43237
C          3.95759        0.83415       -1.19122
H          4.23841        1.34732       -2.10597
C          2.62096        0.51975       -0.96058
H          1.87087        0.79692       -1.69537
C         -0.17133        0.65525        0.29820
C         -0.51934        1.43441        1.40752
H         -0.10538        1.18626        2.38159
C         -1.38545        2.51552        1.27155
H         -1.64437        3.10972        2.14246
C         -1.92664        2.82826        0.02384
H         -2.60958        3.66540       -0.08061
C         -1.58529        2.06017       -1.08614
H         -1.99810        2.29601       -2.06218
C         -0.70823        0.98174       -0.95198
H         -0.44885        0.39175       -1.82869
H         -3.30826       -2.13887       -0.65017
