24
id_99_cb.log	Energy: -431907.9453822
C          2.16834        2.85847        0.16460
H          1.63626        3.18665        1.06373
H          1.69431        3.28546       -0.72516
H          3.20914        3.17708        0.21525
O          2.20139        1.43800        0.08810
C          1.00618        0.78398        0.02980
C         -0.21426        1.41939        0.02607
H         -0.28774        2.50135        0.05353
C         -1.41955        0.66329       -0.00457
C         -2.69435        1.29221       -0.02090
H         -2.74207        2.37857       -0.01553
C         -3.84576        0.54023       -0.04409
H         -4.81430        1.03199       -0.05795
C         -3.78102       -0.87625       -0.05029
H         -4.69863       -1.45679       -0.06851
C         -2.56061       -1.50977       -0.03329
H         -2.49709       -2.59545       -0.03771
C         -1.35644       -0.75699       -0.00950
C         -0.07738       -1.37790        0.01116
H         -0.02231       -2.46456        0.01240
C          1.08276       -0.64590        0.01222
C          2.41465       -1.37418       -0.04879
O          3.22616       -1.02350       -0.94758
O          2.59581       -2.30747        0.78015
