22
id_963_ca.log	Energy: -253397.8890843
C          0.60780        1.93109       -0.65987
H          0.59823        2.67823        0.13454
H          0.02067        2.27045       -1.51249
H          1.62887        1.72218       -0.97607
N         -0.00970        0.68446       -0.12952
C         -1.45476        0.89180        0.20060
H         -1.51097        1.52812        1.08673
H         -1.88581        1.41654       -0.65403
C         -2.15980       -0.44452        0.40337
H         -3.23597       -0.25743        0.36269
H         -1.93411       -0.87968        1.38004
O         -1.81575       -1.33989       -0.64557
H         -1.14310       -1.95583       -0.31374
C          0.77214        0.10349        1.00711
H          0.92748        0.89234        1.74632
H          0.16423       -0.68985        1.44387
C          2.07914       -0.48967        0.50327
H          2.52278       -1.05803        1.32530
H          2.79143        0.28455        0.20784
O          1.80912       -1.37465       -0.57677
H          2.09997       -0.94981       -1.39819
H          0.01014       -0.02984       -0.87427
