34
id_927_ca.log	Energy: -540086.8406236
C         -1.86120       -0.53005        2.07305
H         -0.79926       -0.78199        2.18615
H         -2.39225       -1.44666        1.79510
H         -2.22934       -0.19948        3.04726
C         -2.05601        0.55310        1.04689
C         -2.32401        1.87283        1.42413
H         -2.39105        2.11219        2.48240
C         -2.51525        2.87358        0.47187
H         -2.72359        3.88950        0.79469
C         -2.44916        2.57386       -0.88906
H         -2.60502        3.34899       -1.63278
C         -2.17799        1.26796       -1.28885
H         -2.11230        1.00431       -2.34076
C         -1.97056        0.28331       -0.32658
N         -1.72750       -1.06077       -0.76905
C         -0.64359       -1.81868       -0.44387
O         -0.77004       -3.04913       -0.34440
C          0.65852       -1.13232       -0.25906
C          1.54937       -1.66888        0.68270
H          1.25684       -2.54010        1.26191
C          2.78731       -1.08568        0.88895
H          3.47934       -1.48331        1.62498
C          3.16347        0.03754        0.13786
C          2.29461        0.56729       -0.82131
H          2.57681        1.42144       -1.42521
C          1.04489       -0.01976       -1.00881
H          0.38531        0.38782       -1.76866
O          4.39618        0.54398        0.40453
C          4.81748        1.68924       -0.33303
H          4.14123        2.53188       -0.15877
H          4.86856        1.46346       -1.40266
H          5.81197        1.93127        0.04006
O         -2.92643       -1.78207       -0.88850
H         -2.67980       -2.69629       -0.62270
