32
id_946_ca.log	Energy: -375050.1463531
C          2.13561       -1.47368       -1.07561
H          1.74962       -0.95654       -1.95230
H          1.35308       -2.06899       -0.60220
H          2.97865       -2.10333       -1.35787
N          2.61591       -0.47575       -0.07528
C          3.25744       -1.16474        1.08149
H          3.64892       -0.40931        1.76149
H          4.06202       -1.79529        0.70482
H          2.49570       -1.76940        1.57522
C          1.51653        0.42632        0.39916
H          0.71406       -0.23304        0.74345
H          1.90770        0.98685        1.25050
C          1.05122        1.39179       -0.68791
H          0.72389        0.86139       -1.58426
H          1.87026        2.06986       -0.94784
C         -0.09529        2.22084       -0.12740
O          0.11256        3.07187        0.71715
C         -1.49009        1.87953       -0.61184
H         -2.20003        2.55067       -0.12308
H         -1.52702        2.03280       -1.69619
C         -1.76480        0.42793       -0.27856
C         -2.06085        0.06773        1.04018
H         -2.16585        0.84512        1.79350
C         -2.20589       -1.27215        1.39105
H         -2.43589       -1.53978        2.41778
C         -2.04970       -2.26784        0.42657
H         -2.15793       -3.31279        0.70008
C         -1.76151       -1.91602       -0.89098
H         -1.64605       -2.68574       -1.64815
C         -1.61990       -0.57388       -1.24112
H         -1.39087       -0.30003       -2.26821
H          3.33130        0.10790       -0.52723
