31
id_907_ca.log	Energy: -741361.9235351
C          4.87888        1.28077        0.21667
H          4.99167        1.10126        1.29078
H          4.25798        2.16677        0.04927
H          5.85879        1.42766       -0.23655
O          4.31896        0.14176       -0.42981
C          3.07425       -0.25806       -0.03777
C          2.32762        0.37839        0.95735
H          2.70905        1.24690        1.48155
C          1.05771       -0.10672        1.27139
H          0.45914        0.39509        2.02862
C          0.54781       -1.22838        0.62325
C          1.30404       -1.87073       -0.36058
H          0.90828       -2.75182       -0.85598
C          2.55771       -1.38153       -0.69635
H          3.15820       -1.86722       -1.45958
N         -0.76247       -1.72397        0.94456
H         -1.05215       -1.47725        1.89531
S         -1.98908       -1.27992       -0.10897
O         -3.23088       -1.68714        0.54987
O         -1.65309       -1.83916       -1.41690
C         -1.93446        0.48912       -0.22773
C         -2.58027        1.24205        0.75220
H         -3.16744        0.75748        1.52693
C         -2.45782        2.62865        0.71164
H         -2.95917        3.23392        1.46017
C         -1.69341        3.23502       -0.28726
H         -1.60015        4.31656       -0.31161
C         -1.04821        2.46300       -1.25385
H         -0.45433        2.93901       -2.02765
C         -1.16146        1.07414       -1.22934
H         -0.66162        0.46019       -1.97263
