31
id_933_cb.log	Energy: -532089.2734421
C         -4.09625        0.14034        0.16024
H         -4.42298       -0.89763        0.04812
H         -4.21838        0.65107       -0.79925
H         -4.73827        0.62869        0.89873
C         -2.65245        0.19314        0.60968
H         -2.52902       -0.30756        1.57589
H         -2.32560        1.23430        0.72372
O         -1.84107       -0.46678       -0.37161
Si        -0.19290       -0.50406       -0.26731
C          0.45657       -1.92820       -1.27307
H          0.26298       -2.85184       -0.71458
H         -0.11852       -2.00961       -2.20888
N          1.91088       -1.79026       -1.47293
H          2.08360       -0.93444       -1.99764
H          2.23134       -2.54700       -2.07515
O          0.48747        0.85580       -0.92119
C          0.31616        2.14631       -0.32216
H         -0.61823        2.58448       -0.69186
H          0.23444        2.04513        0.76735
C          1.49679        3.02182       -0.68405
H          2.42540        2.59843       -0.28922
H          1.36544        4.02394       -0.26587
H          1.58724        3.10860       -1.77086
O          0.13692       -0.60398        1.35118
C          1.42740       -0.98142        1.84689
H          1.30794       -1.13898        2.92217
H          1.72454       -1.93688        1.39857
C          2.47902        0.07929        1.58088
H          3.42392       -0.21015        2.05089
H          2.16652        1.04280        1.99633
H          2.65214        0.19737        0.50688
