28
id_913_ca.log	Energy: -433556.4719929
C          4.69600       -0.50535       -0.29017
H          4.92873       -0.20327        0.73654
H          4.90360        0.35068       -0.94070
H          5.32741       -1.34721       -0.57658
C          3.25148       -0.90511       -0.39857
O          2.93571       -2.03573       -0.75398
C          2.19492        0.10104       -0.06518
C          2.52423        1.39301        0.35623
H          3.56195        1.69347        0.46122
C          1.51133        2.30703        0.64315
H          1.76488        3.31041        0.97101
C          0.17599        1.93557        0.51675
H         -0.61033        2.64894        0.74981
C         -0.17177        0.64177        0.09722
C          0.84997       -0.26588       -0.19331
H          0.60721       -1.26479       -0.54842
C         -1.60223        0.26721       -0.06332
C         -2.46205        1.07994       -0.81487
H         -2.05433        1.97539       -1.27770
C         -3.80313        0.75364       -0.99355
H         -4.44482        1.39541       -1.58902
C         -4.30919       -0.40801       -0.40693
H         -5.35260       -0.67920       -0.53856
C         -3.48086       -1.22309        0.35754
H         -3.86043       -2.12100        0.83652
C         -2.13778       -0.88675        0.53261
O         -1.39648       -1.72755        1.32622
H         -0.50647       -1.36265        1.47225
