23
id_94_ca.log	Energy: -300972.8606610
C          0.17468       -1.25418       -1.03975
H         -0.25647       -1.27150       -2.04921
H          0.77781       -2.15857       -0.92974
C         -0.96104       -1.26324       -0.01258
H         -0.54437       -1.29911        1.00406
H         -1.59436       -2.14779       -0.14506
C         -1.79777        0.00002       -0.15541
H         -2.32577        0.00005       -1.11401
C         -0.96102        1.26326       -0.01251
H         -1.59433        2.14782       -0.14492
H         -0.54435        1.29906        1.00413
C          0.17469        1.25424       -1.03968
H          0.77783        2.15862       -0.92964
H         -0.25646        1.27160       -2.04913
C          1.04614        0.00002       -0.90094
H          1.78497        0.00003       -1.71508
C          1.89250       -0.00003        0.39136
O          2.24071        1.11676        0.87149
O          2.24057       -1.11684        0.87152
N         -2.87029       -0.00000        0.89553
H         -2.45410       -0.00007        1.83506
H         -3.46884       -0.83056        0.81883
H         -3.46878        0.83060        0.81893
