25
id_951_ca.log	Energy: -218399.2875183
C          2.12105       -1.17557        0.75009
H          1.39018       -1.97914        0.67629
H          2.05371       -0.67859        1.71892
H          3.12440       -1.56918        0.59061
N          1.84730       -0.15901       -0.30587
C          2.95119        0.84060       -0.37165
H          2.72910        1.55309       -1.16522
H          3.88147        0.31327       -0.57990
H          3.00468        1.34512        0.59367
C          0.52838        0.52721       -0.11544
H          0.61354        1.08261        0.82163
H          0.42336        1.23022       -0.94466
C         -0.62638       -0.46680       -0.10991
H         -0.65982       -1.00013        0.85604
H         -0.45769       -1.21371       -0.89513
N         -1.90030        0.19617       -0.37878
C         -2.19777        1.15359        0.68512
H         -1.48201        1.97952        0.67626
H         -2.17708        0.68297        1.68349
H         -3.19377        1.57361        0.52461
C         -2.94622       -0.82298       -0.39499
H         -3.91160       -0.35468       -0.60288
H         -3.02156       -1.35674        0.56786
H         -2.74053       -1.55655       -1.17919
H          1.81317       -0.64814       -1.20913
