33
id_927_cb.log	Energy: -539794.1026189
C         -1.27504       -0.15957        2.24372
H         -0.17975       -0.19667        2.28376
H         -1.63727       -1.18816        2.15405
H         -1.62756        0.25193        3.19363
C         -1.74400        0.70084        1.10078
C         -1.92386        2.07914        1.28843
H         -1.71866        2.50158        2.26949
C         -2.37177        2.90439        0.26127
H         -2.50458        3.96756        0.43991
C         -2.66471        2.35982       -0.99233
H         -3.02462        2.99298       -1.79788
C         -2.48732        0.99802       -1.20331
H         -2.70185        0.55020       -2.17005
C         -2.00843        0.18234       -0.17429
N         -1.88817       -1.21898       -0.44011
C         -0.75740       -1.92532       -0.36858
O         -0.76439       -3.18569       -0.42185
C          0.54603       -1.19975       -0.24323
C          1.50489       -1.72040        0.63845
H          1.26664       -2.60288        1.22611
C          2.74262       -1.11361        0.78302
H          3.48142       -1.50426        1.47665
C          3.05422        0.02350        0.02593
C          2.12333        0.53858       -0.87905
H          2.35269        1.40374       -1.49011
C          0.87675       -0.07740       -1.00344
H          0.16625        0.32799       -1.71791
O          4.29268        0.55858        0.23188
C          4.63962        1.72158       -0.51370
H          3.95285        2.54465       -0.29146
H          4.63446        1.51099       -1.58793
H          5.64748        1.98801       -0.19666
O         -3.08077       -1.85887       -0.62164
