18
id_968_cb.log	Energy: -228461.3563994
C         -0.68028        1.65159       -0.39255
H         -0.60905        1.80286       -1.47428
H         -0.18988        2.49441        0.10676
H         -1.73659        1.65047       -0.11084
C         -0.02409        0.33694        0.00962
C         -0.77405       -0.84631       -0.61451
H         -0.22249       -1.77534       -0.41308
H         -0.84608       -0.71873       -1.69963
O         -2.09211       -0.93132       -0.09487
H         -1.97950       -0.70071        0.84805
C          1.42898        0.33954       -0.45763
H          1.92809        1.23280       -0.05667
H          1.46522        0.39046       -1.55538
O          2.06663       -0.84134        0.01358
H          3.00710       -0.77722       -0.21118
N         -0.14311        0.17156        1.46765
H          0.15921        1.03486        1.91898
H          0.52621       -0.54398        1.75440
