21
id_983_cb.log	Energy: -193467.7191807
C          0.80853        1.40025        0.94978
H          1.50114        2.04068        0.39144
H          1.39328        0.80533        1.66109
H          0.14416        2.04902        1.53220
C         -0.00000        0.51313        0.00000
C         -0.80853        1.40025       -0.94978
H         -0.14415        2.04903       -1.53220
H         -1.50114        2.04069       -0.39144
H         -1.39328        0.80533       -1.66109
C          0.94432       -0.35705       -0.85019
H          1.60006        0.31157       -1.42096
H          0.35112       -0.90777       -1.58981
N          1.78801       -1.32643       -0.14691
H          1.18434       -1.97574        0.35743
H          2.31349       -0.83662        0.57657
C         -0.94432       -0.35705        0.85019
H         -1.60006        0.31157        1.42096
H         -0.35112       -0.90777        1.58981
N         -1.78801       -1.32643        0.14691
H         -1.18434       -1.97574       -0.35742
H         -2.31348       -0.83662       -0.57658
