25
id_99_ca.log	Energy: -432190.2199948
C          2.06923        2.96197        0.12657
H          1.53476        3.27791        1.02814
H          1.57860        3.36945       -0.76285
H          3.10183        3.30655        0.16857
O          2.14255        1.54075        0.05638
C          0.97545        0.85163        0.01190
C         -0.26320        1.45221        0.01243
H         -0.36086        2.53180        0.03347
C         -1.45050        0.67275       -0.00673
C         -2.73808        1.27539       -0.01291
H         -2.80933        2.36007       -0.00669
C         -3.87087        0.49693       -0.02662
H         -4.84994        0.96746       -0.03168
C         -3.77887       -0.91938       -0.03439
H         -4.68555       -1.51654       -0.04514
C         -2.54766       -1.52784       -0.02821
H         -2.45910       -2.61143       -0.03399
C         -1.36051       -0.74611       -0.01314
C         -0.07576       -1.34072       -0.00572
H         -0.00368       -2.42408       -0.01806
C          1.07397       -0.58144       -0.00417
C          2.38963       -1.26926       -0.06286
O          3.42694       -0.78982       -0.48414
O          2.33135       -2.53500        0.38591
H          3.20957       -2.94542        0.26603
