14
id_972_cb.log	Energy: -156619.0535657
C          1.75529       -0.64252        0.02560
H          2.59771       -0.08516       -0.39551
H          1.80573       -1.67197       -0.34517
H          1.87141       -0.66468        1.11569
C          0.43556        0.01638       -0.34986
C         -0.75048       -0.75503        0.21474
H         -0.63530       -0.83956        1.30794
H         -0.78724       -1.76680       -0.20020
O         -1.96784       -0.10263       -0.11160
H         -1.74844        0.84510       -0.02646
N          0.30070        1.40525        0.11676
H          0.97440        1.98571       -0.38047
H          0.58746        1.43216        1.09721
H          0.32979        0.03653       -1.44045
