29
id_921_cb.log	Energy: -504380.9410462
C         -4.89159        0.70942       -0.99567
H         -5.36873        1.22023       -0.15253
H         -5.54764       -0.11793       -1.28744
H         -4.82692        1.40954       -1.83242
C         -3.53141        0.19703       -0.60732
C         -2.38261        0.59056       -1.29851
H         -2.47116        1.27846       -2.13545
C         -1.12493        0.11424       -0.93013
H         -0.24937        0.43173       -1.48994
C         -0.99744       -0.77928        0.13789
C         -2.14660       -1.18564        0.83151
H         -2.05060       -1.87431        1.66599
C         -3.39271       -0.69832        0.46580
H         -4.27762       -1.00998        1.01606
C          0.32353       -1.33099        0.54541
O          0.40096       -2.34092        1.23972
C          1.57912       -0.70239        0.01540
C          2.44311       -1.51928       -0.71812
H          2.18962       -2.56572       -0.86631
C          3.60863       -0.99117       -1.27161
H          4.27444       -1.63101       -1.84291
C          3.91174        0.35767       -1.09102
H          4.82000        0.77427       -1.51636
C          3.05054        1.17389       -0.35787
H          3.28878        2.22257       -0.20464
C          1.88543        0.65347        0.20679
C          1.00862        1.53481        1.07834
O          0.47851        0.98441        2.08177
O          0.89034        2.74627        0.75107
