47
id_992_cb.log	Energy: -568997.4596781
C          2.41362       -1.03136        2.64463
H          3.02005       -1.15785        1.74185
H          2.06073       -2.01539        2.96516
H          3.05123       -0.62090        3.43158
C          1.22624       -0.09685        2.38644
H          1.57089        0.87892        2.03637
H          0.67011        0.05349        3.31834
C          0.26503       -0.72577        1.39489
O         -0.32004       -1.75423        1.68887
C          0.14215       -0.11772       -0.01898
C         -0.89695       -0.91082       -0.84183
H         -0.68386       -1.97625       -0.74355
H         -0.77212       -0.65067       -1.89869
C         -2.34156       -0.63870       -0.41962
H         -2.65882        0.32391       -0.83370
H         -2.41380       -0.54582        0.68001
N         -3.27101       -1.66395       -0.90294
C         -4.63434       -1.16509       -0.74965
H         -4.86831       -0.90966        0.29896
H         -5.34736       -1.92569       -1.07966
H         -4.77805       -0.26932       -1.35985
C         -3.14155       -2.87392       -0.09443
H         -3.84988       -3.62828       -0.44784
H         -3.34964       -2.67848        0.97252
H         -2.13699       -3.29496       -0.17178
C         -0.29461        1.34553        0.02323
C         -0.90179        1.90856        1.14815
H         -1.01531        1.32807        2.06074
C         -1.38773        3.21643        1.11864
H         -1.85316        3.63437        2.00593
C         -1.28244        3.97682       -0.04136
H         -1.66075        4.99397       -0.06549
C         -0.69195        3.41945       -1.17610
H         -0.61172        4.00012       -2.08998
C         -0.20570        2.11688       -1.14284
H          0.25141        1.68988       -2.03221
C          1.56584       -0.30269       -0.58003
C          2.51644        0.72434       -0.53413
H          2.23425        1.70804       -0.17206
C          3.82881        0.50369       -0.94546
H          4.54631        1.31740       -0.90184
C          4.21972       -0.75111       -1.40715
H          5.24252       -0.92309       -1.72756
C          3.28597       -1.78348       -1.44992
H          3.57700       -2.76883       -1.80082
C          1.97456       -1.56258       -1.03469
H          1.27406       -2.39115       -1.05563
