11
id_935_ca.log	Energy: -373407.5339187
C         -1.03471        1.24568        0.13021
H         -0.52673        2.10445       -0.30409
H         -0.97418        1.24774        1.21768
H         -2.07073        1.19586       -0.20611
N         -0.37268        0.00000       -0.36628
C         -1.03471       -1.24568        0.13021
H         -2.07073       -1.19586       -0.20611
H         -0.97418       -1.24774        1.21768
H         -0.52673       -2.10445       -0.30409
Cl         1.32741       -0.00000        0.05782
H         -0.39738        0.00000       -1.39653
