29
id_98_cb.log	Energy: -397315.6184565
C          2.10839       -1.65249       -0.99103
H          1.85546       -1.23692       -1.96685
H          1.28640       -2.25213       -0.60350
H          3.01682       -2.25273       -1.04902
N          2.37298       -0.50825       -0.05115
C          3.57795        0.22516       -0.55598
H          3.81106        1.04202        0.12629
H          3.37717        0.59422       -1.56137
H          4.40162       -0.48817       -0.57876
C          2.70684       -1.04864        1.31220
H          1.88121       -1.66238        1.66819
H          2.87518       -0.20302        1.97951
H          3.60908       -1.65334        1.21775
C          1.16081        0.36139        0.03326
C          1.20575        1.69840       -0.34478
H          2.11274        2.16574       -0.70549
C          0.03893        2.46006       -0.25057
H          0.06750        3.50516       -0.54257
C         -1.14440        1.89630        0.21160
H         -2.04618        2.49898        0.28105
C         -1.18376        0.55098        0.59433
C         -0.01931       -0.21310        0.50275
H         -0.05594       -1.25663        0.80166
C         -2.47357       -0.09210        1.04391
H         -3.13835        0.66609        1.46522
H         -2.27099       -0.85713        1.79732
C         -3.15450       -0.74274       -0.17297
O         -3.87216        0.00072       -0.89744
O         -2.91939       -1.96463       -0.38602
