13
id_965_cb.log	Energy: -109431.7879288
C          1.53074       -0.52632        0.11147
H          1.11639       -1.47738       -0.23918
H          1.62230       -0.58281        1.20223
H          2.53765       -0.43296       -0.30593
C          0.64878        0.65003       -0.29720
H          0.56042        0.68584       -1.39124
H          1.12199        1.59006        0.01214
C         -0.75255        0.58358        0.30862
H         -1.30878        1.48547        0.03296
H         -0.67366        0.58541        1.40199
N         -1.55863       -0.57913       -0.08019
H         -1.06187       -1.42062        0.21098
H         -1.56586       -0.62287       -1.10000
