30
id_907_cb.log	Energy: -741068.1653248
C         -4.94437        1.45789       -0.21114
H         -5.03923        1.30262       -1.29125
H         -4.30670        2.32692       -0.01676
H         -5.93051        1.62339        0.22271
O         -4.42724        0.29605        0.42495
C         -3.17655       -0.12425        0.04271
C         -2.39600        0.51482       -0.92087
H         -2.74781        1.40451       -1.43152
C         -1.13410       -0.00068       -1.23210
H         -0.52227        0.50162       -1.97791
C         -0.63017       -1.14652       -0.60832
C         -1.44002       -1.77697        0.35282
H         -1.07712       -2.67597        0.84290
C         -2.69298       -1.27338        0.67820
H         -3.31521       -1.76585        1.42064
N          0.63571       -1.66482       -0.99263
S          1.80122       -1.41307        0.03146
O          3.05859       -1.95110       -0.54854
O          1.53880       -1.87899        1.42474
C          2.02633        0.36154        0.18884
C          2.81203        1.03062       -0.74935
H          3.34777        0.47048       -1.51056
C          2.90505        2.42009       -0.69429
H          3.52374        2.94718       -1.41453
C          2.20460        3.13118        0.28246
H          2.27755        4.21409        0.32088
C          1.41228        2.45315        1.20881
H          0.86599        3.00504        1.96802
C          1.31850        1.06154        1.16519
H          0.70557        0.52694        1.88532
