15
id_970_ca.log	Energy: -156911.1742448
C          0.12148        1.07713       -0.35339
H          0.21593        2.15178       -0.17250
H          0.05069        0.93282       -1.43808
C         -1.15878        0.60322        0.31492
H         -2.01754        1.21098        0.03196
H         -1.06343        0.60141        1.40207
N         -1.46816       -0.80660       -0.08994
H         -1.71000       -0.85254       -1.08596
H         -2.25257       -1.19150        0.44536
C          1.36267        0.38563        0.18296
H          1.43566        0.54160        1.26612
H          2.25921        0.80603       -0.28683
O          1.26158       -1.01110       -0.10764
H          1.93844       -1.47675        0.40722
H         -0.62416       -1.38460        0.05443
