17
id_950_ca.log	Energy: -228013.5796484
C          2.37407        1.11689        0.14681
H          2.02131        1.93216       -0.49037
H          3.39977        0.85691       -0.10997
H          2.31909        1.45305        1.18546
C          1.49155       -0.07797       -0.03799
O          1.84295       -1.17424       -0.41783
O          0.21071        0.19585        0.27531
C         -0.71742       -0.88406        0.10830
H         -0.68491       -1.23772       -0.92626
H         -0.46110       -1.70835        0.77742
C         -2.07669       -0.33949        0.46476
H         -2.09532        0.05740        1.47929
H         -2.83936       -1.10892        0.35326
N         -2.42672        0.78553       -0.45416
H         -2.46540        0.46914       -1.43074
H         -1.72556        1.53360       -0.39311
H         -3.33989        1.18885       -0.21690
