49
id_930_ca.log	Energy: -660603.7573639
C         -3.17182        4.02748       -0.32947
H         -3.38108        5.02841        0.05880
H         -4.11381        3.47594       -0.38976
H         -2.76252        4.13169       -1.33920
C         -2.18698        3.30793        0.58313
H         -2.59848        3.20220        1.58823
H         -1.25766        3.87595        0.66349
N         -1.84455        1.97163        0.08062
C         -0.68960        1.91533       -0.82367
H         -0.71568        0.99011       -1.39970
H         -0.80143        2.73330       -1.54474
C          0.65060        2.04892       -0.10666
H          0.81859        1.22915        0.60018
H          0.71551        2.98950        0.44793
H          1.46048        2.03828       -0.84346
C         -2.74796        0.98483        0.28612
O         -3.77293        1.17890        0.95209
C         -2.47466       -0.40335       -0.29581
C         -3.67694       -1.33368       -0.14306
H         -3.93436       -1.41835        0.91830
H         -4.54276       -0.91410       -0.66149
C         -3.33192       -2.71074       -0.70967
H         -3.16798       -2.64341       -1.79192
H         -4.15299       -3.41386       -0.54664
C         -2.08985       -3.29334       -0.05398
H         -1.78501       -4.23654       -0.51031
H         -2.22480       -3.43535        1.02184
N         -0.93250       -2.34332       -0.20188
C         -1.25721       -1.00919        0.39842
H         -1.44701       -1.18246        1.46286
H         -0.37133       -0.38776        0.29162
C          0.33010       -2.92991        0.36953
H          0.11897       -3.16085        1.41556
H          0.51094       -3.85678       -0.17952
C          1.48340       -1.96841        0.23963
C          1.91382       -1.55548       -1.02657
H          1.45969       -1.97374       -1.92100
C          2.91351       -0.60187       -1.15259
H          3.24510       -0.25736       -2.12440
C          3.48720       -0.09840        0.00915
C          3.11176       -0.51243        1.27906
H          3.58556       -0.09236        2.15787
C          2.08853       -1.44821        1.38518
H          1.74991       -1.76681        2.36605
N          4.51097        0.93937       -0.11335
O          4.66288        1.46910       -1.20272
O          5.15696        1.23361        0.87886
H         -2.24817       -0.30062       -1.36498
H         -0.78433       -2.19758       -1.21153
