14
id_964_cb.log	Energy: -1877150.7355644
C         -1.20495       -1.11490        0.00000
H         -2.14600       -1.65527        0.00000
C         -1.21455        0.27769        0.00000
H         -2.15296        0.82245        0.00000
C          0.00000        0.95643        0.00000
C          1.21455        0.27766        0.00000
H          2.15296        0.82241        0.00000
C          1.20492       -1.11492        0.00000
H          2.14596       -1.65532        0.00000
C         -0.00002       -1.82234        0.00000
C         -0.00003       -3.34320        0.00000
O          1.12074       -3.92260        0.00000
O         -1.12080       -3.92259        0.00000
Br         0.00003        2.84939        0.00000
