48
id_979_cb.log	Energy: -616198.7477514
C          4.21798        1.29864       -0.32022
H          3.84515        2.29343       -0.58412
H          5.16666        1.15107       -0.84425
H          4.41506        1.29361        0.75729
C          3.17793        0.23907       -0.70435
C          1.84032        0.57818       -0.03605
H          1.97899        0.68085        1.04848
H          1.55038        1.56955       -0.40094
C          0.73211       -0.42852       -0.33319
H          1.05011       -1.41779        0.00293
H          0.57545       -0.48699       -1.41760
C         -0.63131       -0.10176        0.31950
C         -1.73063       -1.08849       -0.13250
C         -1.42032       -2.32509       -0.70278
H         -0.38909       -2.61422       -0.86954
C         -2.43225       -3.21064       -1.07737
H         -2.16718       -4.16385       -1.52441
C         -3.76782       -2.87698       -0.88196
H         -4.55393       -3.56588       -1.17496
C         -4.08839       -1.64727       -0.30672
H         -5.12671       -1.37255       -0.14814
C         -3.08022       -0.76506        0.06459
H         -3.34339        0.19077        0.50773
C         -1.01221        1.34168       -0.01916
C         -1.49215        1.62540       -1.30268
H         -1.66729        0.81100       -2.00098
C         -1.74918        2.93538       -1.69581
H         -2.12368        3.13215       -2.69576
C         -1.52766        3.98894       -0.80998
H         -1.73162        5.01117       -1.11292
C         -1.03834        3.71883        0.46476
H         -0.85364        4.53031        1.16197
C         -0.77823        2.40583        0.85565
H         -0.38381        2.22150        1.85081
C         -0.51927       -0.33115        1.83166
O          0.39530       -0.91322        2.37712
O         -1.58061        0.11536        2.51372
H         -1.45698       -0.11561        3.45524
N          3.59132       -1.15494       -0.45433
C          3.77164       -1.45716        0.95972
H          2.84472       -1.28787        1.51390
H          4.57570       -0.87132        1.43574
H          4.03247       -2.51519        1.06387
C          4.80942       -1.48928       -1.17964
H          5.71099       -1.00370       -0.77155
H          4.70983       -1.19642       -2.22964
H          4.97218       -2.57124       -1.13977
H          3.02416        0.30152       -1.79080
