24
id_95_ca.log	Energy: -301256.6620938
C          0.12835        1.26316        0.17992
H          0.61094        2.15950       -0.22229
H          0.23568        1.28923        1.27161
C         -1.35418        1.26327       -0.19384
H         -1.46251        1.29798       -1.28652
H         -1.84765        2.14865        0.22151
C         -2.02292        0.00000        0.32981
H         -2.02841        0.00000        1.42393
C         -1.35418       -1.26327       -0.19384
H         -1.46251       -1.29798       -1.28651
H         -1.84766       -2.14865        0.22152
C          0.12835       -1.26316        0.17993
H          0.61093       -2.15950       -0.22229
H          0.23568       -1.28923        1.27162
C          0.82000       -0.00000       -0.35910
H          0.77337       -0.00000       -1.45350
C          2.26776       -0.00000        0.05416
O          3.12064       -0.00000       -0.98045
O          2.65326        0.00001        1.21027
N         -3.46593        0.00000       -0.08105
H         -3.95398        0.83001        0.27568
H         -3.95398       -0.83000        0.27569
H         -3.55552       -0.00000       -1.10471
H          4.03682       -0.00000       -0.63920
