39
id_923_cb.log	Energy: -414481.0893861
C          0.01111        3.77507        0.00885
H         -0.99530        4.17495       -0.15339
H          0.66250        4.18454       -0.77221
H          0.37158        4.17225        0.96627
C          0.00105        2.26470       -0.00642
C          1.19399        1.53614       -0.00564
H          2.12303        2.10121       -0.00993
C          1.23548        0.13995        0.00022
C         -0.00242       -0.60642        0.00550
C         -1.23567        0.14102        0.00029
C         -1.19106        1.54010       -0.00540
H         -2.11868        2.10662       -0.00945
C         -2.59057       -0.58957       -0.00118
C         -3.77880        0.38378       -0.00856
H         -4.71075       -0.19329       -0.00950
H         -3.78321        1.02292       -0.89908
H         -3.78895        1.02932        0.87727
C         -2.74309       -1.45800        1.26150
H         -3.71928       -1.95997        1.25561
H         -2.69231       -0.83469        2.16292
H         -1.96437       -2.22032        1.32475
C         -2.73528       -1.46781       -1.25805
H         -3.71150       -1.96971       -1.25445
H         -1.95622       -2.23064       -1.31045
H         -2.67875       -0.85149       -2.16393
O         -0.00195       -1.91188        0.01280
C          2.58824       -0.59443       -0.00117
C          3.77899        0.37578       -0.00853
H          4.70930       -0.20387       -0.00940
H          3.79084        1.02125        0.87732
H          3.78518        1.01480       -0.89911
C          2.73035       -1.47280       -1.25824
H          1.95009       -2.23433       -1.31030
H          3.70578       -1.97615       -1.25504
H          2.67448       -0.85627       -2.16401
C          2.73809       -1.46292        1.26178
H          3.71354       -1.96627        1.25643
H          1.95822       -2.22399        1.32468
H          2.68785       -0.83936        2.16305
