24
id_951_cb.log	Energy: -218106.6379899
C         -2.13999        1.15881        0.68191
H         -1.41675        1.97732        0.65770
H         -2.10452        0.69260        1.68305
H         -3.13621        1.58668        0.54056
N         -1.86909        0.19553       -0.38127
C         -2.92670       -0.80908       -0.37678
H         -2.74145       -1.54999       -1.15959
H         -3.89187       -0.33373       -0.57224
H         -2.99437       -1.33946        0.58947
C         -0.59299       -0.47960       -0.13335
H         -0.63681       -1.02927        0.82517
H         -0.44534       -1.22171       -0.92593
C          0.59299        0.47959       -0.13335
H          0.63681        1.02927        0.82517
H          0.44534        1.22171       -0.92593
N          1.86909       -0.19553       -0.38127
C          2.13999       -1.15881        0.68191
H          1.41675       -1.97732        0.65770
H          2.10452       -0.69260        1.68305
H          3.13621       -1.58668        0.54056
C          2.92670        0.80909       -0.37678
H          3.89187        0.33373       -0.57224
H          2.99437        1.33946        0.58947
H          2.74145        1.54999       -1.15959
