11
id_942_cb.log	Energy: -131959.5320444
C          0.63228        0.65066       -0.27271
H          1.10874        1.57540        0.07792
H          0.59145        0.68697       -1.36537
C         -0.78408        0.56399        0.26911
H         -1.39005        1.40158       -0.08754
H         -0.76073        0.60485        1.36902
O         -1.39794       -0.63942       -0.17033
H         -0.67876       -1.29700       -0.11610
N          1.34323       -0.57376        0.11530
H          1.60193       -0.49764        1.09845
H          2.21921       -0.63039       -0.39923
