15
id_943_ca.log	Energy: -359570.8928608
C         -1.85391        0.95621        0.03074
H         -2.74649        1.03339       -0.59326
H         -1.20487        1.80841       -0.17938
H         -2.15178        0.96213        1.08171
S         -1.05193       -0.61888       -0.38391
C          0.27724       -0.62159        0.86023
H         -0.15379       -0.45871        1.85167
H          0.71520       -1.62430        0.84420
C          1.35174        0.42332        0.62319
H          2.12799        0.35567        1.38602
H          0.95055        1.43679        0.61138
N          2.01614        0.20143       -0.69681
H          1.32631        0.22419       -1.45946
H          2.48109       -0.71437       -0.72401
H          2.72329        0.92130       -0.88360
