29
id_920_cb.log	Energy: -654737.5074323
C         -1.82146       -2.98893        1.02998
H         -1.68714       -3.99119        1.42585
C         -2.19926       -2.80688       -0.30289
H         -2.35704       -3.66704       -0.94702
C         -2.36893       -1.52373       -0.81574
H         -2.65579       -1.37021       -1.85184
C         -2.15239       -0.41682        0.00769
C         -1.80689       -0.59071        1.34852
H         -1.67116        0.27745        1.98769
C         -1.62976       -1.87920        1.85278
H         -1.35367       -2.01274        2.89470
N         -2.34040        0.89065       -0.53650
C         -1.46217        1.89283       -0.43752
O         -1.74826        3.06676       -0.78874
C         -0.07944        1.59810        0.06659
C          0.47635        2.45233        1.02347
H         -0.11450        3.28014        1.40558
C          1.76769        2.23571        1.49787
H          2.18599        2.89244        2.25392
C          2.52562        1.17378        1.00719
H          3.53163        1.00008        1.37556
C          1.97378        0.34038        0.03567
C          0.68075        0.54431       -0.44154
H          0.26878       -0.11574       -1.20062
C          2.78159       -0.78204       -0.54398
F          3.32373       -0.45757       -1.73937
F          2.03875       -1.88593       -0.75958
F          3.80385       -1.14878        0.24855
O         -3.54851        1.10923       -1.12417
