49
id_979_ca.log	Energy: -616493.6995116
C          4.17960        1.33355       -0.44974
H          3.78265        2.30003       -0.77063
H          5.11674        1.16608       -0.98452
H          4.38153        1.39544        0.62327
C          3.13347        0.27770       -0.76663
C          1.79559        0.59577       -0.10337
H          1.93603        0.73733        0.97491
H          1.50013        1.56906       -0.50778
C          0.69691       -0.42947       -0.38567
H          1.00776       -1.42367       -0.04825
H          0.52242       -0.48621       -1.46645
C         -0.65065       -0.11001        0.30206
C         -1.75998       -1.08891       -0.13883
C         -1.46526       -2.31812       -0.73247
H         -0.43909       -2.60928       -0.92557
C         -2.48764       -3.19566       -1.09724
H         -2.23513       -4.14330       -1.56289
C         -3.81748       -2.86069       -0.86859
H         -4.61185       -3.54324       -1.15391
C         -4.12194       -1.63793       -0.27022
H         -5.15574       -1.36238       -0.08605
C         -3.10369       -0.76335        0.09106
H         -3.35432        0.18743        0.55179
C         -1.03583        1.33918       -0.00854
C         -1.53262        1.64159       -1.28138
H         -1.71466        0.83804       -1.99040
C         -1.79782        2.95716       -1.64869
H         -2.18564        3.17003       -2.64016
C         -1.56781        3.99612       -0.74761
H         -1.77842        5.02264       -1.03075
C         -1.06232        3.70662        0.51628
H         -0.87203        4.50678        1.22484
C         -0.79380        2.38790        0.88204
H         -0.38821        2.18802        1.86973
C         -0.49112       -0.35240        1.80885
O          0.46283       -0.89955        2.32206
O         -1.54990        0.04760        2.51922
H         -1.39390       -0.17773        3.45733
N          3.61925       -1.11619       -0.38954
C          3.74506       -1.35368        1.07741
H          2.77361       -1.21923        1.55302
H          4.47735       -0.65747        1.48487
H          4.08833       -2.37871        1.21769
C          4.88387       -1.48583       -1.08904
H          5.71303       -0.95421       -0.62444
H          4.79421       -1.21748       -2.14179
H          5.02386       -2.56107       -0.98138
H          2.99071        0.20994       -1.84980
H          2.90305       -1.76516       -0.73418
