21
id_939_cb.log	Energy: -229831.5088596
C          3.20038        0.66071       -0.22548
H          3.14198        1.60973        0.31641
H          3.24438        0.89890       -1.29374
H          4.09893        0.11555        0.06658
C          1.97305       -0.16666        0.04673
O          2.05123       -1.31981        0.44107
C          0.64000        0.50141       -0.19462
H          0.59658        1.36985        0.47482
H          0.64291        0.90689       -1.21446
C         -0.53476       -0.44112        0.01458
H         -0.57146       -0.74796        1.07630
H         -0.36392       -1.35088       -0.56998
N         -1.81644        0.12773       -0.40359
C         -2.15875        1.27331        0.43396
H         -2.15454        1.01709        1.50856
H         -3.15890        1.62947        0.17312
H         -1.45867        2.09638        0.27372
C         -2.84530       -0.89278       -0.23185
H         -3.81555       -0.49974       -0.54742
H         -2.93351       -1.22303        0.81818
H         -2.61079       -1.76706       -0.84543
