13
id_967_cb.log	Energy: -1722876.2075242
C          1.17895        0.83668       -0.33366
H          1.10700        0.61135       -1.40433
H          1.80443        1.73433       -0.23095
C          1.85097       -0.32164        0.39751
H          1.23869       -1.22219        0.29241
H          1.89413       -0.09262        1.46843
N          3.20590       -0.62992       -0.06438
H          3.75709        0.22648       -0.00279
H          3.15329       -0.83175       -1.06310
C         -0.18768        1.19495        0.21212
H         -0.63111        2.04733       -0.29919
H         -0.16867        1.37700        1.28669
Br        -1.47570       -0.27715       -0.03578
