35
id_901_ca.log	Energy: -633844.7892815
C         -1.19061       -1.28602       -1.03897
H         -0.20942       -1.14168       -1.49779
H         -1.95092       -1.09117       -1.80126
H         -1.27499       -2.33011       -0.72094
C         -1.38454       -0.37641        0.17338
C         -0.34091       -0.69909        1.28592
H         -0.55668       -0.07365        2.15838
H         -0.50011       -1.74440        1.57160
C          1.09149       -0.49922        0.86338
C          1.69229        0.76189        0.97831
H          1.12926        1.59091        1.40023
C          3.00380        0.96993        0.56997
H          3.47084        1.94376        0.65937
C          3.70699       -0.10997        0.04543
C          3.15001       -1.37898       -0.07856
H          3.72857       -2.20024       -0.48506
C          1.83669       -1.56192        0.33589
H          1.38242       -2.54536        0.25187
N          5.08785        0.09513       -0.38555
O          5.57655        1.20985       -0.26404
O          5.70017       -0.85576       -0.85178
C         -2.77330       -0.59036        0.79244
H         -2.86941       -0.05289        1.74386
H         -2.91184       -1.65369        1.01215
C         -3.90326       -0.12124       -0.08646
O         -3.78678        0.65736       -1.01576
O         -5.07601       -0.63358        0.29024
C         -6.22847       -0.19552       -0.44993
H         -7.07502       -0.71014        0.00048
H         -6.12513       -0.47433       -1.50019
H         -6.34310        0.88596       -0.35541
C         -1.19400        1.07846       -0.23019
O         -0.66629        1.45197       -1.26036
O         -1.60726        1.93670        0.71242
H         -1.42976        2.84937        0.41208
