20
id_987_ca.log	Energy: -159031.6147295
C          2.79358       -0.24320        0.09473
H          3.62473        0.41141       -0.17892
H          2.90432       -1.18317       -0.45467
H          2.87393       -0.46348        1.16398
C          1.45760        0.42196       -0.22546
H          1.38606        0.62345       -1.30119
H          1.38909        1.38089        0.29623
C          0.31544       -0.48924        0.19199
H          0.22360       -0.55954        1.27974
H          0.45324       -1.49353       -0.21656
N         -1.02050       -0.02135       -0.31153
C         -2.08589       -1.00445        0.03171
H         -1.80204       -1.97856       -0.36517
H         -3.02323       -0.66983       -0.41113
H         -2.16965       -1.04303        1.11848
C         -1.37585        1.33804        0.18635
H         -0.66939        2.06326       -0.21328
H         -1.33495        1.31828        1.27645
H         -2.38400        1.57396       -0.15371
H         -0.95752        0.03068       -1.33547
