34
id_901_cb.log	Energy: -633561.0859253
C         -1.22277       -1.23932       -1.03825
H         -0.23424       -1.13357       -1.49203
H         -1.96691       -1.02401       -1.81135
H         -1.34556       -2.28210       -0.72239
C         -1.39460       -0.31254        0.16525
C         -0.36200       -0.66916        1.27460
H         -0.57013       -0.04598        2.15120
H         -0.52578       -1.71555        1.55776
C          1.07375       -0.48169        0.86070
C          1.69336        0.76888        0.99697
H          1.13829        1.59905        1.42616
C          3.00798        0.96559        0.59423
H          3.48746        1.93194        0.69854
C          3.69891       -0.11490        0.05319
C          3.12442       -1.37420       -0.09134
H          3.69240       -2.19693       -0.50970
C          1.80817       -1.54528        0.31855
H          1.34147       -2.52151        0.21857
N          5.08153        0.07832       -0.37227
O          5.58711        1.18355       -0.23008
O          5.68204       -0.87220       -0.85582
C         -2.77927       -0.52050        0.79065
H         -2.87597        0.05575        1.71913
H         -2.91928       -1.57431        1.05592
C         -3.92658       -0.09773       -0.08849
O         -3.84956        0.63195       -1.05997
O         -5.09069       -0.60096        0.34239
C         -6.26223       -0.21350       -0.39291
H         -7.09445       -0.70989        0.10289
H         -6.18130       -0.54712       -1.42926
H         -6.38691        0.87049       -0.35539
C         -1.18653        1.18002       -0.19870
O         -0.62084        1.45898       -1.29041
O         -1.55375        2.03262        0.66002
