25
id_961_cb.log	Energy: -324948.6897128
C          1.30587        0.93908       -0.93772
H          1.98554        0.20209       -1.37991
H          1.26165        1.79975       -1.62160
C          1.85950        1.35696        0.41880
H          1.23077        2.15035        0.84966
H          2.87818        1.74429        0.32478
O          1.90489        0.23348        1.28810
H          1.04133       -0.21011        1.17281
N          0.00197        0.31950       -0.74485
C         -0.18438       -0.98478       -1.35734
H         -1.25689       -1.17538       -1.46654
H          0.26107       -1.05171       -2.36190
C          0.40998       -2.06803       -0.47225
H          1.49499       -1.93104       -0.38026
H          0.22047       -3.05765       -0.90443
O         -0.20481       -1.95378        0.81201
H          0.23558       -2.56950        1.41829
C         -1.13337        1.22476       -0.78243
H         -0.78784        2.20107       -0.42586
H         -1.53869        1.36754       -1.79909
C         -2.24176        0.74084        0.14951
H         -2.73697       -0.14822       -0.26519
H         -3.00180        1.52097        0.25131
O         -1.73653        0.46276        1.44598
H         -1.10459       -0.27180        1.32165
