10
id_940_cb.log	Energy:  -84774.6521828
C         -1.24149       -0.23599       -0.02405
H         -1.27711       -0.98645        0.77386
H         -1.31989       -0.75752       -0.98302
H         -2.11196        0.41690        0.08837
C          0.04979        0.55991        0.04922
H          0.07874        1.11611        0.99747
H          0.06804        1.30511       -0.75229
N          1.20589       -0.32729       -0.13008
H          1.21768       -0.97509        0.65816
H          2.05345        0.22846       -0.02298
