19
id_93_ca.log	Energy: -530570.8298875
C         -0.76584        2.54368       -0.00000
H         -1.40843        2.64007       -0.88166
H         -0.05119        3.36965       -0.00001
H         -1.40841        2.64008        0.88167
C         -0.04285        1.22503       -0.00000
C          1.35403        1.18628       -0.00000
H          1.91987        2.11509       -0.00000
C          2.02595       -0.03336        0.00000
C          1.31917       -1.23336       -0.00000
H          1.86244       -2.17426        0.00000
C         -0.07641       -1.23317       -0.00000
C         -0.72844        0.00600       -0.00000
Cl        -2.48566        0.03066        0.00000
C         -0.83650       -2.53082       -0.00000
H         -0.14472       -3.37606       -0.00001
H         -1.48140       -2.60960       -0.88170
H         -1.48139       -2.60960        0.88170
O          3.39702       -0.11025        0.00001
H          3.77865        0.78370       -0.00001
