22
id_997_cb.log	Energy: -183398.2678922
C          3.17753        0.61208        0.33898
H          2.85107        1.63604        0.55040
H          4.13190        0.66756       -0.19262
H          3.35598        0.11446        1.29844
C          2.12903       -0.13818       -0.47583
H          2.48091       -1.15056       -0.70481
H          1.97422        0.36859       -1.43758
C          0.79653       -0.22575        0.25454
H          0.48047        0.79335        0.53368
H          0.92706       -0.77817        1.19454
N         -0.20459       -0.93240       -0.54482
H         -0.37739       -0.36507       -1.37603
C         -1.48075       -1.08806        0.15954
H         -2.17193       -1.59228       -0.52594
H         -1.31574       -1.76921        1.00300
C         -2.14351        0.19641        0.66779
H         -3.11742       -0.07215        1.09379
H         -1.55599        0.62669        1.48732
C         -2.32902        1.23385       -0.43528
H         -2.87583        2.10875       -0.07162
H         -2.88962        0.81217       -1.27770
H         -1.36440        1.58450       -0.81959
