38
id_922_cb.log	Energy: -460926.0915313
C          2.49315       -1.95898        1.26578
H          3.39930       -2.57755        1.25366
H          1.62842       -2.61996        1.34781
H          2.53076       -1.32585        2.16062
C          2.43951       -1.08967       -0.00387
C          3.73495       -0.26596       -0.03078
H          4.59047       -0.95057       -0.03935
H          3.83213        0.37716        0.85138
H          3.80302        0.36370       -0.92539
C          2.45743       -1.98252       -1.25827
H          1.59550       -2.65049       -1.30047
H          3.36776       -2.59496       -1.26376
H          2.46227       -1.36622       -2.16559
C          1.19277       -0.19259        0.00539
C          1.30916        1.18001        0.00227
H          2.28769        1.65049       -0.00457
C          0.18376        2.03284        0.00686
C         -1.10285        1.45577        0.00858
H         -1.94969        2.13802        0.00788
C         -1.30582        0.09057        0.01004
C         -0.14375       -0.79355        0.01699
O         -0.28609       -2.05997        0.03234
C         -2.72355       -0.50045       -0.00415
C         -2.94976       -1.32190       -1.28684
H         -2.84805       -0.68249       -2.17211
H         -3.96464       -1.73911       -1.28826
H         -2.24018       -2.14722       -1.37576
C         -2.96486       -1.38135        1.23539
H         -2.28367       -2.23297        1.27110
H         -3.99383       -1.76217        1.22432
H         -2.83454       -0.79446        2.15295
C         -3.79918        0.59464        0.01653
H         -4.78759        0.12169        0.00673
H         -3.73650        1.25095       -0.85908
H         -3.73571        1.21535        0.91797
C          0.31154        3.46069        0.00469
H         -0.64200        4.02095        0.00697
O          1.37660        4.10250        0.00032
