21
id_999_cb.log	Energy: -206509.2166859
C         -2.10873       -1.06937       -0.35680
H         -2.96644       -0.78039        0.25714
H         -2.20459       -2.13124       -0.60228
H         -2.15339       -0.50395       -1.30113
N         -0.87368       -0.85421        0.39104
C          0.27126       -1.17426       -0.46702
H          0.12506       -2.20169       -0.82435
H          0.30995       -0.52745       -1.36073
C          1.57791       -1.09144        0.26692
H          1.64859       -1.67458        1.18514
C          2.61840       -0.37280       -0.14736
H          3.55790       -0.35887        0.39777
H          2.56616        0.22431       -1.05592
C         -0.79336        0.52367        0.90212
H         -1.67931        0.68343        1.52839
H          0.08311        0.59848        1.55441
C         -0.71681        1.60915       -0.14263
H         -1.55181        1.68997       -0.83827
C          0.30201        2.46030       -0.24213
H          0.32562        3.24480       -0.99376
H          1.15087        2.40523        0.43777
