36
id_978_cb.log	Energy: -376399.1792655
C          2.68512       -2.12977       -0.29713
H          3.23293       -1.28554       -0.73050
H          2.49821       -2.86487       -1.08629
H          3.30867       -2.59739        0.47007
C          1.37393       -1.64671        0.28756
C          0.47492       -1.01710       -0.79740
H         -0.06348       -1.80906       -1.33445
H          1.12837       -0.52960       -1.52584
N         -0.42195        0.00623       -0.24072
C         -0.32563        1.26582       -0.99250
H         -0.15070        1.06981       -2.06050
H         -1.26623        1.81678       -0.92717
C          0.77875        2.19155       -0.46807
C          0.47466        2.73710        0.92065
H          1.27787        3.40426        1.24656
H          0.38443        1.92674        1.65219
H         -0.46535        3.29838        0.91912
O          2.06371        1.57037       -0.50210
H          2.06163        0.85399        0.16516
C         -1.81123       -0.44345        0.05216
C         -1.76300       -1.76727        0.82174
H         -2.77588       -2.03778        1.13516
H         -1.14215       -1.66953        1.72000
H         -1.37538       -2.58977        0.21371
C         -2.48495        0.58365        0.96961
H         -1.89217        0.72272        1.88049
H         -3.47738        0.22133        1.25626
H         -2.61891        1.55856        0.49241
C         -2.63698       -0.62747       -1.22791
H         -3.63981       -0.99326       -0.98362
H         -2.16775       -1.35599       -1.89833
H         -2.74718        0.31800       -1.76919
O          1.65510       -0.66235        1.28568
H          0.79858       -0.18837        1.37299
H          0.85413       -2.48738        0.76408
H          0.84706        3.03218       -1.16833
