19
id_988_cb.log	Energy: -158738.1896244
C          1.76683       -0.74335       -0.52390
H          1.58190       -1.41457       -1.36770
H          1.86826       -1.34783        0.38360
H          2.72407       -0.23917       -0.68940
C          0.65403        0.29196       -0.38947
H          0.67170        0.91484       -1.29247
C          0.92724        1.20315        0.81205
H          0.14061        1.95140        0.95079
H          1.87123        1.73676        0.66251
H          1.01792        0.62352        1.73719
N         -0.67597       -0.35170       -0.39571
C         -1.73805        0.63051       -0.57093
H         -2.69168        0.11291       -0.71562
H         -1.54175        1.23882       -1.45885
H         -1.85815        1.30748        0.29108
C         -0.94065       -1.11839        0.81634
H         -1.88534       -1.65837        0.69856
H         -1.02954       -0.49003        1.71789
H         -0.15391       -1.85716        0.98777
