26
id_912_cb.log	Energy: -479721.3812229
C          3.75158        0.44712        1.02179
H          4.67108        0.87329        1.41245
C          3.78683       -0.36371       -0.11636
H          4.73145       -0.56457       -0.61287
C          2.61046       -0.91125       -0.61578
H          2.62807       -1.53742       -1.50294
C          1.38749       -0.64260        0.01233
C          1.35516        0.17025        1.15150
H          0.41446        0.37403        1.65555
C          2.53820        0.70873        1.65660
H          2.51017        1.33270        2.54474
C          0.14604       -1.25464       -0.54612
O          0.20536       -2.22703       -1.29223
C         -1.19229       -0.73446       -0.11414
C         -2.08360       -1.65396        0.44537
H         -1.78823       -2.69615        0.53314
C         -3.32986       -1.23348        0.90683
H         -4.01615       -1.95253        1.34386
C         -3.68677        0.11073        0.80820
H         -4.65756        0.44453        1.16266
C         -2.79854        1.02934        0.24913
H         -3.07748        2.07544        0.16076
C         -1.55160        0.61775       -0.22319
C         -0.63916        1.62184       -0.90650
O          0.00707        1.20991       -1.90803
O         -0.60986        2.78973       -0.43416
