17
id_960_ca.log	Energy: -134381.0796633
C          2.46967       -0.35573       -0.00001
H          3.37372        0.25722        0.00001
H          2.48418       -0.99119       -0.89016
H          2.48417       -0.99120        0.89014
C          1.25607        0.54980       -0.00000
H          1.21382        1.18169       -0.88853
H          1.21382        1.18169        0.88852
N          0.00000       -0.26331        0.00001
H         -0.00000       -0.88106       -0.82189
C         -1.25607        0.54980       -0.00000
H         -1.21382        1.18169        0.88853
H         -1.21382        1.18169       -0.88853
C         -2.46967       -0.35573       -0.00001
H         -2.48418       -0.99118       -0.89016
H         -3.37372        0.25722        0.00001
H         -2.48417       -0.99120        0.89014
H          0.00000       -0.88104        0.82193
