27
id_903_cb.log	Energy: -812874.4421604
C         -2.61292        0.91192        0.07734
H         -1.86670        1.69629        0.13782
C         -3.96224        1.23873        0.07142
H         -4.27867        2.27542        0.12597
C         -4.91014        0.21744       -0.00431
C         -4.53955       -1.12091       -0.07110
H         -5.29157       -1.90110       -0.12875
C         -3.18390       -1.43868       -0.06229
H         -2.86499       -2.47566       -0.11250
C         -2.22041       -0.43105        0.00839
N         -0.86682       -0.87571        0.00825
N         -0.01635        0.03621        0.00944
C          1.33526       -0.38580        0.01313
C          1.75498       -1.72882        0.03498
H          1.02062       -2.52710        0.05245
C          3.10277       -2.02720        0.03500
H          3.44946       -3.05610        0.05218
C          4.05912       -0.99619        0.01312
C          3.65120        0.35266       -0.00690
C          2.28479        0.63252       -0.00594
H          1.95343        1.66695       -0.02139
C          4.65960        1.47666       -0.02809
O          5.89263        1.14236       -0.03033
O          4.24356        2.65742       -0.04175
O          5.36392       -1.34255        0.01280
H          5.86699       -0.47099       -0.00440
Cl        -6.60698        0.63549       -0.01174
