15
id_964_ca.log	Energy: -1877432.6137341
C         -1.08227       -1.18356       -0.00000
H         -1.63009       -2.11959       -0.00000
C          0.30845       -1.20329       -0.00001
H          0.84288       -2.14708       -0.00000
C          0.99847        0.00565       -0.00001
C          0.33626        1.23084       -0.00000
H          0.89229        2.16201       -0.00000
C         -1.05340        1.24020       -0.00000
H         -1.58871        2.18430        0.00000
C         -1.76342        0.03691       -0.00000
C         -3.24766        0.09511        0.00000
O         -3.89077        1.13011        0.00000
O         -3.82807       -1.11127        0.00000
H         -4.79793       -0.99598        0.00001
Br         2.88725       -0.01615        0.00000
