26
id_908_ca.log	Energy: -526446.2781115
C          4.00522        0.69841       -0.00002
H          4.94482        1.24195       -0.00003
C          4.00522       -0.69841        0.00003
H          4.94482       -1.24195        0.00006
C          2.80178       -1.39762        0.00005
H          2.79277       -2.48271        0.00007
C          1.59154       -0.70178        0.00002
C          1.59154        0.70178       -0.00002
C          2.80178        1.39762       -0.00004
H          2.79277        2.48271       -0.00007
C          0.31660        1.46009       -0.00001
O          0.33376        2.69858       -0.00001
C         -0.94831        0.71435        0.00000
C         -2.16378        1.40398        0.00002
C         -3.37929        0.68563        0.00002
H         -4.30917        1.24583        0.00003
C         -3.37929       -0.68563        0.00000
H         -4.30917       -1.24582        0.00001
C         -2.16378       -1.40398       -0.00001
C         -0.94831       -0.71435       -0.00001
C          0.31660       -1.46009       -0.00000
O          0.33376       -2.69858       -0.00001
O         -2.26152       -2.75155       -0.00003
H         -1.34887       -3.12390       -0.00002
O         -2.26151        2.75155        0.00003
H         -1.34887        3.12389        0.00001
