22
id_947_cb.log	Energy: -760167.3616769
C          1.06140        2.83500       -0.05491
H          2.08349        2.45580       -0.14987
H          0.90741        3.15763        0.97951
H          0.97288        3.71145       -0.70283
C          0.02446        1.79980       -0.46236
H          0.23696        1.44543       -1.48515
H         -0.95617        2.28317       -0.50389
N         -0.08130        0.67221        0.47724
C          1.19842        0.01606        0.73947
H          1.87451        0.72655        1.22310
H          1.02241       -0.79662        1.45035
C          1.87874       -0.55230       -0.50338
H          2.16382        0.22350       -1.21483
H          1.26287       -1.29962       -1.00567
Cl         3.41013       -1.38528       -0.02602
C         -1.09120       -0.28211        0.01807
H         -1.04863       -0.44497       -1.07080
H         -0.91220       -1.24653        0.50282
C         -2.48502        0.19442        0.39940
H         -2.74302        1.15031       -0.05546
H         -2.59936        0.25947        1.48098
Cl        -3.71700       -0.99097       -0.18614
