20
id_969_ca.log	Energy: -159041.6231760
C         -0.44243        1.25537       -0.88018
H          0.36822        1.26695       -1.61843
H         -0.37104        2.16325       -0.27107
H         -1.38475        1.29121       -1.43640
C         -0.40902        0.00000       -0.00335
C         -1.61923        0.00008        0.93595
H         -2.54493        0.00004        0.35196
H         -1.61902        0.88839        1.57712
H         -1.61903       -0.88813        1.57725
C         -0.44243       -1.25551       -0.87997
H         -0.37105       -2.16329       -0.27070
H          0.36822       -1.26721       -1.61822
H         -1.38475       -1.29144       -1.43619
C          0.82307        0.00008        0.90270
H          0.84585       -0.88965        1.53475
H          0.84587        0.88995        1.53456
N          2.11121       -0.00001        0.13630
H          2.19681        0.82909       -0.46261
H          2.19683       -0.82927       -0.46238
H          2.91303        0.00009        0.77639
