51
id_991_cb.log	Energy: -640852.0959557
C         -0.88683       -4.33840       -0.86117
H          0.02298       -4.64506       -0.33792
H         -1.13868       -5.10692       -1.59670
H         -1.70428       -4.27017       -0.13799
C         -0.67728       -3.01920       -1.56611
H         -1.58544       -2.67255       -2.06774
H          0.12640       -3.07574       -2.30557
O         -0.31005       -2.04941       -0.56517
C         -0.11239       -0.80338       -1.00007
O         -0.15638       -0.51087       -2.17961
C          0.34798        0.11990        0.13324
C         -0.49390       -0.10310        1.41270
H         -0.00691        0.44655        2.22696
H         -0.46924       -1.16315        1.68623
C         -1.94500        0.37929        1.32867
C         -2.63105        0.20133        2.68711
H         -2.57383       -0.83581        3.03383
H         -3.68615        0.49017        2.64083
H         -2.14323        0.83300        3.43573
N         -2.65211       -0.24452        0.19448
C         -3.78616        0.56325       -0.23582
H         -4.23418        0.11433       -1.12841
H         -3.45191        1.57386       -0.49000
H         -4.57625        0.64128        0.53058
C         -3.10550       -1.60180        0.48139
H         -3.96544       -1.62380        1.17127
H         -2.29817       -2.19175        0.92015
H         -3.41426       -2.08666       -0.45138
C          0.27555        1.60029       -0.25250
C         -0.69297        2.10744       -1.12631
H         -1.38238        1.43200       -1.61820
C         -0.78956        3.47741       -1.36465
H         -1.54661        3.84686       -2.05009
C          0.07253        4.36779       -0.72896
H         -0.00317        5.43417       -0.91795
C          1.02974        3.87571        0.15518
H          1.70487        4.55658        0.66468
C          1.12723        2.50620        0.38966
H          1.87711        2.13686        1.08412
C          1.81789       -0.30829        0.33142
C          2.71551       -0.10567       -0.72588
H          2.36132        0.35712       -1.64384
C          4.04839       -0.48337       -0.61376
H          4.72715       -0.31573       -1.44437
C          4.51096       -1.07325        0.56312
H          5.55194       -1.36691        0.65542
C          3.62703       -1.28157        1.61636
H          3.97473       -1.73961        2.53730
C          2.28703       -0.90502        1.50188
H          1.62109       -1.08067        2.33923
H         -1.92644        1.45205        1.10766
