27
id_97_ca.log	Energy: -362606.2615682
C          3.35704       -1.34137       -0.46937
H          4.01702       -2.13250       -0.81371
C          2.65218       -1.48512        0.72809
H          2.76399       -2.38965        1.31982
C          1.80650       -0.46806        1.16885
H          1.26140       -0.58553        2.10376
C          1.64837        0.70941        0.42572
C          2.35949        0.84106       -0.77152
H          2.24464        1.74860       -1.36080
C          3.20853       -0.17408       -1.21788
H          3.75227       -0.05183       -2.15073
C          0.69664        1.78423        0.89582
H          0.91015        2.02838        1.94323
H          0.85962        2.69664        0.30958
C         -0.77460        1.36105        0.77685
H         -0.94229        0.46789        1.39341
H         -1.40692        2.15621        1.19190
C         -1.20099        1.08528       -0.66388
H         -0.56327        0.31185       -1.10822
H         -1.06216        1.99338       -1.26276
C         -2.65979        0.65462       -0.76889
H         -2.97972        0.59722       -1.81760
H         -3.32852        1.36896       -0.27701
C         -2.91380       -0.71012       -0.18966
O         -2.07050       -1.56723        0.00252
O         -4.21406       -0.92234        0.07690
H         -4.32712       -1.83435        0.40909
