27
id_913_cb.log	Energy: -433262.6885562
C          4.69663       -0.49060       -0.23788
H          4.91721       -0.14681        0.77824
H          4.90869        0.33957       -0.91971
H          5.33520       -1.33983       -0.48426
C          3.25396       -0.90209       -0.34674
O          2.95482       -2.04813       -0.67026
C          2.18956        0.10507       -0.05348
C          2.51323        1.41906        0.30930
H          3.54865        1.73352        0.39379
C          1.49156        2.32949        0.56525
H          1.73333        3.34892        0.85116
C          0.15824        1.93458        0.46691
H         -0.62919        2.65179        0.68518
C         -0.18963        0.62262        0.10407
C          0.84847       -0.28081       -0.15239
H          0.61274       -1.29796       -0.44728
C         -1.61474        0.23090       -0.03568
C         -2.49633        1.09971       -0.69221
H         -2.09935        2.02785       -1.10072
C         -3.84891        0.80644       -0.85762
H         -4.50403        1.49526       -1.38219
C         -4.33428       -0.40040       -0.34046
H         -5.38495       -0.65848       -0.45627
C         -3.48614       -1.27649        0.32310
H         -3.87175       -2.20861        0.73166
C         -2.09850       -1.00704        0.51126
O         -1.33798       -1.83787        1.16649
