29
id_905_cb.log	Energy: -693888.2557769
C         -4.72137        1.28127        0.22571
H         -4.67543        2.30281       -0.16266
H         -4.91933        1.33022        1.30125
H         -5.58043        0.78548       -0.24147
C         -3.44374        0.53390       -0.06069
C         -3.14005       -0.65567        0.61381
H         -3.83052       -1.03199        1.36650
C         -1.97686       -1.37048        0.33637
H         -1.76758       -2.29686        0.86427
C         -1.06277       -0.91188       -0.62599
C         -1.36563        0.27846       -1.30177
H         -0.66561        0.64909       -2.04746
C         -2.53574        0.98564       -1.02342
H         -2.74396        1.90785       -1.56229
N          0.11172       -1.63370       -0.96445
S          1.28470       -1.54249        0.07660
O          2.45472       -2.27822       -0.46823
O          0.93222       -1.93264        1.47280
C          1.77415        0.18073        0.20171
C          1.18325        0.99721        1.16488
H          0.50052        0.57385        1.89600
C          1.48405        2.35993        1.18075
H          1.02962        3.00197        1.92949
C          2.36373        2.89404        0.23941
H          2.59720        3.95456        0.25569
C          2.94543        2.06748       -0.72442
H          3.63181        2.48237       -1.45661
C          2.64602        0.70677       -0.75148
H          3.08821        0.05878       -1.50298
