37
id_916_ca.log	Energy: -390128.3523948
C          2.33444       -2.24836        0.00002
H          3.31395       -2.73894        0.00004
H          1.78988       -2.58718       -0.88864
H          1.78986       -2.58715        0.88869
C          2.53287       -0.72991        0.00000
C          3.33845       -0.34805        1.25293
H          2.78582       -0.60331        2.16459
H          3.56365        0.72330        1.27755
H          4.28956       -0.89329        1.26515
C          3.33842       -0.34808       -1.25295
H          2.78577       -0.60336       -2.16459
H          4.28953       -0.89333       -1.26519
H          3.56362        0.72327       -1.27761
C          1.20320        0.03111        0.00000
C         -0.03430       -0.61362        0.00001
H         -0.07055       -1.69778        0.00000
C         -1.24870        0.09931        0.00001
C         -1.20395        1.49136        0.00001
H         -2.10446        2.09651        0.00001
C          0.03164        2.14513        0.00000
C          1.22379        1.43584        0.00000
H          2.16278        1.98558       -0.00001
O          0.00577        3.52305       -0.00000
H          0.91553        3.86481        0.00000
C         -2.57171       -0.67279        0.00000
C         -2.64421       -1.56057       -1.25345
H         -3.58975       -2.11549       -1.26328
H         -1.82591       -2.28751       -1.28216
H         -2.59452       -0.95295       -2.16454
C         -2.64417       -1.56070        1.25337
H         -1.82587       -2.28765        1.28196
H         -3.58971       -2.11561        1.26317
H         -2.59444       -0.95318        2.16451
C         -3.78667        0.25928        0.00007
H         -3.80646        0.90049       -0.88847
H         -3.80641        0.90042        0.88867
H         -4.70251       -0.34183        0.00007
