17
id_986_ca.log	Energy: -392260.7375523
C          0.63911        1.24173        0.00003
H          1.17661        2.18383        0.00004
C         -0.74971        1.23282        0.00003
H         -1.31724        2.15560        0.00005
C         -1.39372        0.00067        0.00001
C         -0.71772       -1.21333       -0.00001
H         -1.26055       -2.15082       -0.00003
C          0.67207       -1.18862       -0.00001
H          1.22501       -2.12087       -0.00003
C          1.34562        0.03623        0.00001
C          2.83728        0.09781       -0.00001
O          3.47018        1.13647       -0.00004
O          3.41440       -1.10644        0.00002
H          4.38512       -0.99548        0.00000
N         -2.86326       -0.01893       -0.00000
O         -3.42594       -1.10232        0.00002
O         -3.45410        1.04934       -0.00003
