30
id_906_cb.log	Energy: -741069.4703814
C          4.64380        1.67012        0.64417
H          5.63209        1.98539        0.31111
H          4.71183        1.24149        1.64902
H          3.96386        2.52795        0.64868
O          4.21289        0.68931       -0.29517
C          2.98546        0.12906       -0.10539
C          2.59672       -0.82371       -1.05892
H          3.27388       -1.05933       -1.87443
C          1.36319       -1.44557       -0.95303
H          1.05852       -2.17584       -1.69746
C          0.51655       -1.13310        0.11537
C          0.89680       -0.18317        1.05644
H          0.23337        0.06697        1.87919
C          2.13643        0.45285        0.95519
H          2.41975        1.18777        1.69959
S         -1.13000       -1.83296        0.15590
O         -1.52691       -1.77813        1.59361
O         -1.02018       -3.21726       -0.37443
N         -2.03144       -0.99799       -0.82549
C         -2.14347        0.38170       -0.51918
C         -2.93091        0.85540        0.54318
H         -3.45584        0.13993        1.16974
C         -3.04553        2.22311        0.79070
H         -3.65967        2.56760        1.61868
C         -2.38488        3.14785       -0.02038
H         -2.47893        4.21263        0.17227
C         -1.60767        2.68892       -1.08538
H         -1.08975        3.39710       -1.72685
C         -1.48661        1.32140       -1.33005
H         -0.87481        0.96104       -2.15391
