32
id_993_ca.log	Energy: -257659.6697101
C         -3.69910       -1.30253       -0.26767
H         -4.64468       -0.99527        0.18585
H         -3.59783       -2.38533       -0.14582
H         -3.75143       -1.08501       -1.33932
C         -2.52832       -0.56742        0.37986
H         -2.47824       -0.80457        1.44937
H         -2.67760        0.51302        0.28652
C         -1.23029       -0.98030       -0.29319
H         -1.16961       -0.60371       -1.31693
H         -1.14162       -2.06933       -0.32183
N         -0.00000       -0.49707        0.42627
C          0.00000        0.98173        0.70519
H         -0.88017        1.17867        1.31983
H          0.88019        1.17866        1.31983
C          0.00001        1.84068       -0.54683
H          0.88382        1.62254       -1.15585
H         -0.88381        1.62255       -1.15585
C          0.00001        3.31476       -0.14852
H          0.88594        3.55876        0.44636
H         -0.88591        3.55876        0.44637
H          0.00002        3.95391       -1.03488
C          1.23028       -0.98030       -0.29319
H          1.14160       -2.06933       -0.32184
H          1.16961       -0.60371       -1.31693
C          2.52831       -0.56744        0.37986
H          2.67759        0.51300        0.28652
H          2.47823       -0.80458        1.44937
C          3.69909       -1.30255       -0.26767
H          4.64467       -0.99528        0.18585
H          3.75142       -1.08502       -1.33932
H          3.59782       -2.38534       -0.14582
H         -0.00000       -0.95367        1.34764
