39
id_924_cb.log	Energy: -414487.8772408
C         -2.82872       -2.03590        1.47140
H         -3.05617       -2.54219        2.41548
H         -3.75657       -1.58419        1.09857
H         -2.12742       -1.22238        1.68813
C         -2.24935       -3.00866        0.44778
H         -2.93123       -3.85932        0.32294
H         -1.30144       -3.41691        0.82283
C         -2.00892       -2.36264       -0.92644
H         -2.97136       -2.00986       -1.32088
H         -1.64490       -3.13430       -1.61717
C         -1.03481       -1.20869       -0.88201
C          0.34307       -1.42629       -0.76046
H          0.71834       -2.45196       -0.74957
C          1.26330       -0.38191       -0.66018
C          0.81821        0.97773       -0.66880
C         -0.58572        1.20256       -0.80387
C         -1.46502        0.12121       -0.90547
H         -2.53286        0.32838       -1.00177
C         -1.11403        2.61603       -0.80392
H         -0.47395        3.25036       -1.43016
H         -2.11741        2.62758       -1.25037
C         -1.20097        3.23815        0.60034
H         -0.20439        3.23849        1.05917
H         -1.50359        4.28842        0.50185
C         -2.18635        2.51157        1.51239
H         -2.26857        3.00959        2.48444
H         -1.87458        1.47673        1.69262
H         -3.18684        2.48388        1.06271
O          1.67065        1.97531       -0.57393
C          2.73516       -0.67631       -0.51181
H          2.94696       -1.68620       -0.88745
H          3.32143        0.02345       -1.12278
C          3.22357       -0.58354        0.94034
H          2.97073        0.40512        1.34349
H          2.67717       -1.32015        1.54395
C          4.72547       -0.82436        1.06215
H          5.05949       -0.77211        2.10380
H          5.28711       -0.07573        0.49118
H          4.99537       -1.81282        0.67178
