26
id_910_ca.log	Energy: -526447.0006905
C         -3.68684        1.06905       -0.00001
H         -4.62397        1.61679       -0.00001
C         -2.47259        1.76698       -0.00000
H         -2.45683        2.85128       -0.00000
C         -1.27934        1.06269        0.00000
C         -1.26796       -0.35162        0.00000
C         -2.50033       -1.03546       -0.00000
C         -3.70366       -0.31390       -0.00001
H         -4.63628       -0.86951       -0.00001
O         -2.60053       -2.38185       -0.00000
H         -1.69325       -2.76251        0.00000
C         -0.00000       -1.09262        0.00000
O         -0.00000       -2.34088        0.00001
C          1.26796       -0.35162        0.00000
C          1.27934        1.06269        0.00000
C          2.47259        1.76698       -0.00000
H          2.45683        2.85128       -0.00000
C          3.68684        1.06905       -0.00001
H          4.62397        1.61679       -0.00001
C          3.70366       -0.31390       -0.00001
H          4.63628       -0.86951       -0.00001
C          2.50033       -1.03546       -0.00000
O          2.60054       -2.38185        0.00000
H          1.69325       -2.76251        0.00001
C         -0.00000        1.82494        0.00000
O          0.00000        3.04970        0.00001
