26
id_909_ca.log	Energy: -526447.4153431
C         -3.34670       -1.69365       -0.00001
H         -4.09547       -2.47969       -0.00002
C         -1.98679       -2.02998       -0.00001
H         -1.67398       -3.06807       -0.00001
C         -1.03456       -1.02308        0.00000
C         -1.41650        0.33805        0.00000
C         -2.78902        0.65508       -0.00000
C         -3.74713       -0.36960       -0.00001
H         -4.79742       -0.09500       -0.00002
O         -3.24617        1.92522       -0.00000
H         -2.46914        2.53194        0.00000
C         -0.40416        1.40195        0.00001
O         -0.72876        2.59542        0.00002
C          1.03456        1.02308        0.00000
C          1.98679        2.02998       -0.00001
H          1.67398        3.06807       -0.00001
C          3.34670        1.69365       -0.00001
H          4.09547        2.47969       -0.00002
C          3.74713        0.36960       -0.00001
H          4.79742        0.09500       -0.00002
C          2.78902       -0.65508       -0.00000
C          1.41650       -0.33805        0.00000
C          0.40416       -1.40195        0.00001
O          0.72876       -2.59542        0.00002
O          3.24617       -1.92522       -0.00000
H          2.46914       -2.53194        0.00001
