30
id_917_cb.log	Energy: -549148.6459354
C         -3.65233        2.20162        0.61671
H         -3.14275        2.72994       -0.19527
H         -3.01590        2.28218        1.50375
H         -4.59516        2.71394        0.82462
C         -3.91243        0.76254        0.25573
C         -5.21153        0.24567        0.27707
H         -6.03246        0.90255        0.55383
C         -5.46950       -1.08416       -0.05262
H         -6.48959       -1.45690       -0.03615
C         -4.41932       -1.93021       -0.41510
H         -4.61554       -2.96259       -0.68889
C         -3.11760       -1.44229       -0.43543
H         -2.29212       -2.08126       -0.73158
C         -2.86426       -0.10869       -0.09269
N         -1.55774        0.45703       -0.12209
N         -0.62516       -0.36633       -0.03285
C          0.67984        0.18619       -0.10025
C          0.95859        1.54523       -0.33433
H          0.14489        2.24702       -0.48399
C          2.26766        1.98198       -0.37451
H          2.50538        3.02610       -0.55493
C          3.32516        1.07536       -0.18299
C          3.05900       -0.28971        0.04629
C          1.72901       -0.71053        0.08107
H          1.50754       -1.75937        0.25729
C          4.17995       -1.28013        0.25191
O          5.36942       -0.81521        0.21052
O          3.89576       -2.48321        0.45067
O          4.58685        1.55495       -0.22873
H          5.17643        0.75388       -0.06902
