22
id_999_ca.log	Energy: -206800.9144180
C         -2.16386       -0.97936       -0.41128
H         -2.98708       -0.66129        0.22784
H         -2.26027       -2.03560       -0.66027
H         -2.13035       -0.38156       -1.32185
N         -0.88507       -0.79121        0.33165
C          0.29033       -1.17110       -0.52903
H          0.07165       -2.17793       -0.89543
H          0.30300       -0.47734       -1.37281
C          1.57218       -1.13724        0.24218
H          1.62307       -1.77370        1.12471
C          2.61638       -0.40485       -0.13343
H          3.55085       -0.42693        0.41890
H          2.57345        0.23121       -1.01475
C         -0.76046        0.59411        0.92214
H         -1.64463        0.72071        1.55204
H          0.12969        0.58608        1.55347
C         -0.67027        1.65881       -0.12714
H         -1.53629        1.80472       -0.76912
C          0.39870        2.44156       -0.24779
H          0.43599        3.23889       -0.98404
H          1.26712        2.31737        0.39533
H         -0.89866       -1.43771        1.13052
