18
id_982_ca.log	Energy: -405550.7499437
C          0.33659        1.23832       -0.00000
H          0.84588        2.19728       -0.00001
C          1.05787        0.03993       -0.00000
C          0.40406       -1.19499        0.00000
H          0.95331       -2.12981        0.00001
C         -0.98441       -1.22574        0.00000
C         -1.71676       -0.03723        0.00000
C         -1.04943        1.19096       -0.00000
O         -1.85921        2.29403       -0.00001
H         -1.32098        3.10394       -0.00000
O         -3.07649       -0.12761        0.00000
H         -3.46529        0.76589        0.00000
O         -1.62713       -2.43385       -0.00001
H         -2.59056       -2.29352        0.00006
C          2.53669        0.11924        0.00000
O          3.17054        1.16193        0.00001
O          3.13789       -1.07951       -0.00001
H          4.10512       -0.94661       -0.00000
