39
id_922_ca.log	Energy: -461215.0703735
C          2.47862       -1.95665        1.27355
H          3.40449       -2.54211        1.26768
H          1.65359       -2.66746        1.38694
H          2.48358       -1.31863        2.16390
C          2.42343       -1.08628        0.00000
C          3.71218       -0.25100       -0.00001
H          4.56981       -0.93128       -0.00001
H          3.78735        0.38316        0.88967
H          3.78734        0.38314       -0.88971
C          2.47861       -1.95667       -1.27353
H          1.65359       -2.66750       -1.38689
H          3.40449       -2.54212       -1.26767
H          2.48354       -1.31867       -2.16389
C          1.17742       -0.17923       -0.00000
C          1.30338        1.20558       -0.00000
H          2.28223        1.67081        0.00000
C          0.18316        2.04113       -0.00000
C         -1.10030        1.49056       -0.00000
H         -1.94543        2.17176       -0.00000
C         -1.30381        0.11339       -0.00000
C         -0.14481       -0.70066       -0.00000
O         -0.36820       -2.04221       -0.00001
H          0.46579       -2.53260        0.00003
C         -2.71907       -0.48710        0.00000
C         -2.94801       -1.33669       -1.26350
H         -2.80709       -0.72863       -2.16471
H         -3.97861       -1.71068       -1.26641
H         -2.27577       -2.19462       -1.31664
C         -2.94800       -1.33669        1.26350
H         -2.27577       -2.19462        1.31665
H         -3.97860       -1.71068        1.26642
H         -2.80709       -0.72862        2.16471
C         -3.78972        0.61255        0.00000
H         -4.77704        0.13893        0.00001
H         -3.72546        1.24904       -0.88966
H         -3.72546        1.24905        0.88966
C          0.32277        3.49775       -0.00000
H         -0.62374        4.06676       -0.00000
O          1.39185        4.09917        0.00000
