27
id_912_ca.log	Energy: -480002.1828787
C          3.77848        0.30479        1.16202
H          4.68116        0.65358        1.65521
C          3.84795       -0.21005       -0.13574
H          4.80185       -0.25783       -0.65216
C          2.69377       -0.65943       -0.76736
H          2.73609       -1.05662       -1.77726
C          1.46046       -0.58644       -0.10758
C          1.39243       -0.06832        1.19098
H          0.44208       -0.01904        1.71553
C          2.55357        0.37133        1.82504
H          2.50021        0.76489        2.83546
C          0.24286       -1.08000       -0.81011
O          0.32092       -1.80620       -1.79281
C         -1.11260       -0.76108       -0.23847
C         -1.87185       -1.83345        0.22780
H         -1.47558       -2.84175        0.14673
C         -3.11832       -1.61068        0.81330
H         -3.69908       -2.45261        1.17753
C         -3.61453       -0.31403        0.93159
H         -4.58541       -0.13890        1.38411
C         -2.86707        0.76248        0.45904
H         -3.25832        1.77208        0.52833
C         -1.61973        0.54383       -0.12979
C         -0.85088        1.67560       -0.71139
O          0.00817        1.53959       -1.56490
O         -1.19871        2.86764       -0.21802
H         -0.67319        3.56078       -0.66357
