33
id_926_ca.log	Energy: -492907.6217841
C         -0.28577       -0.28131        2.13808
H         -0.82687        0.20901        2.95507
H          0.49672        0.40894        1.80300
H          0.19160       -1.17999        2.53821
C         -1.21564       -0.64380        1.01389
C         -1.73317       -1.93629        0.89200
H         -1.46548       -2.67971        1.63890
C         -2.55287       -2.29208       -0.17894
H         -2.92968       -3.30812       -0.25309
C         -2.88297       -1.35258       -1.15578
H         -3.51892       -1.62552       -1.99204
C         -2.39675       -0.05182       -1.04557
H         -2.64052        0.70417       -1.78653
C         -1.56798        0.28369        0.02245
N         -1.05463        1.61528        0.09931
C          0.07533        2.09134       -0.46707
O          0.55067        3.16680       -0.06776
C          0.72904        1.25496       -1.54677
H         -0.02109        0.81838       -2.21004
H          1.35262        1.94105       -2.12584
C          1.57126        0.16482       -0.91114
C          2.69993        0.50143       -0.15497
H          2.99425        1.54517       -0.06617
C          3.44041       -0.48862        0.48893
H          4.31328       -0.21509        1.07492
C          3.05990       -1.82806        0.38193
H          3.63359       -2.59987        0.88705
C          1.94340       -2.17123       -0.38059
H          1.64208       -3.21130       -0.47084
C          1.20380       -1.17833       -1.02453
H          0.32217       -1.44511       -1.60502
O         -1.53351        2.32314        1.20451
H         -0.82607        2.97870        1.39183
