36
id_916_cb.log	Energy: -389831.7438106
C         -2.35393       -2.20451        0.00005
H         -3.33708       -2.68868        0.00006
H         -1.81159       -2.54831        0.88823
H         -1.81159       -2.54833       -0.88812
C         -2.53911       -0.68367        0.00003
C         -3.34638       -0.30164       -1.25182
H         -2.79523       -0.55906       -2.16414
H         -3.56636        0.77057       -1.27762
H         -4.30015       -0.84314       -1.26500
C         -3.34636       -0.30161        1.25189
H         -2.79520       -0.55901        2.16420
H         -4.30014       -0.84309        1.26508
H         -3.56634        0.77061        1.27767
C         -1.20300        0.07265        0.00001
C          0.02822       -0.59159        0.00001
H          0.05983       -1.67576        0.00003
C          1.24133        0.12733       -0.00001
C          1.20083        1.51838       -0.00003
H          2.11587        2.10477       -0.00005
C         -0.02771        2.24208       -0.00004
C         -1.21604        1.47359       -0.00002
H         -2.16142        2.01401       -0.00002
O         -0.04759        3.55712       -0.00007
C          2.56349       -0.65249       -0.00001
C          2.63525       -1.54267        1.25208
H          3.57933       -2.10091        1.26387
H          1.81481       -2.26723        1.28011
H          2.58608       -0.93618        2.16424
C          2.63524       -1.54268       -1.25209
H          1.81479       -2.26724       -1.28011
H          3.57932       -2.10092       -1.26388
H          2.58606       -0.93619       -2.16426
C          3.78839        0.26717       -0.00002
H          3.81470        0.90888        0.88794
H          3.81469        0.90887       -0.88798
H          4.69898       -0.34261       -0.00001
