19
id_998_ca.log	Energy: -182146.8850855
C          2.66202       -1.13154        0.27512
H          2.74153       -0.96430        1.34681
H          3.12333       -2.02969       -0.12388
C          2.03740       -0.26328       -0.51452
H          1.96168       -0.43451       -1.58724
C          1.42609        1.00111        0.00136
H          1.81612        1.88004       -0.51648
H          1.57489        1.11719        1.07667
N         -0.06031        1.01176       -0.23171
H         -0.25174        0.90501       -1.23629
C         -0.80685       -0.05548        0.51669
H         -0.43813       -1.01670        0.15659
H         -0.53362        0.06812        1.56804
C         -2.27850        0.09449        0.29132
H         -2.73877        1.00339        0.67490
C         -3.00337       -0.82794       -0.33380
H         -4.07303       -0.70731       -0.47538
H         -2.55020       -1.73927       -0.71685
H         -0.43066        1.93153        0.03798
