23
id_932_cb.log	Energy: -388355.8902794
C          3.23503        0.05911        0.34694
H          3.43246       -0.90092        0.83299
H          3.23120        0.84200        1.11123
H          4.04575        0.26543       -0.35757
C          1.90472        0.02164       -0.37592
H          1.91516       -0.75789       -1.14976
H          1.71659        0.98299       -0.87382
O          0.86874       -0.24422        0.57014
Si        -0.71339       -0.42424        0.01765
C         -1.74925       -0.58340        1.56339
H         -2.80384       -0.73497        1.30832
H         -1.67944        0.31806        2.18196
H         -1.42569       -1.43456        2.17171
C         -0.85569       -1.93999       -1.07321
H         -0.54127       -2.84238       -0.53773
H         -0.24532       -1.85156       -1.97819
H         -1.89571       -2.08265       -1.38830
C         -1.17532        1.14709       -0.92280
H         -0.62163        1.21178       -1.86775
H         -2.23386        1.11224       -1.20932
N         -0.93993        2.39905       -0.16128
H          0.03635        2.40348        0.13771
H         -1.47054        2.34205        0.70870
