24
id_995_ca.log	Energy: -230882.7528576
C         -3.10258        0.77184       -0.07574
H         -3.09095        0.93156       -1.15830
H         -3.08625        1.74312        0.42710
H         -4.03038        0.25900        0.19283
C         -1.91006       -0.07043        0.34041
C         -0.60833        0.59642       -0.06570
H         -0.47851        1.55433        0.43731
H         -0.56938        0.73423       -1.14979
N          0.52963       -0.29641        0.30275
H          0.66336       -0.27290        1.32283
C          1.84765        0.00505       -0.36446
H          1.64314       -0.07245       -1.43544
C          2.29429        1.40992       -0.00286
H          3.27909        1.58758       -0.44192
H          2.37877        1.51690        1.08421
H          1.61062        2.17183       -0.38490
C          2.84298       -1.05754        0.06646
H          3.02937       -0.99505        1.14381
H          3.78824       -0.89597       -0.45690
H          2.48135       -2.06158       -0.17432
O         -1.90528       -1.33761       -0.31239
H         -2.60025       -1.88285        0.08916
H         -1.91172       -0.21557        1.42899
H          0.24460       -1.25805        0.06656
