16
id_958_cb.log	Energy: -134081.7955783
C          2.02478       -0.03153       -0.10608
H          2.14852        0.05898       -1.18986
H          2.83509       -0.65846        0.27734
H          2.13809        0.96132        0.33792
C          0.68449       -0.66436        0.23563
H          0.55772       -0.68411        1.33496
H          0.68350       -1.70706       -0.09982
N         -0.46274       -0.00240       -0.39243
C         -1.67043       -0.73259       -0.02455
H         -1.83198       -0.74821        1.06810
H         -1.60262       -1.76726       -0.37259
H         -2.54453       -0.26884       -0.49009
C         -0.58446        1.36656        0.09739
H         -0.63781        1.40950        1.20042
H         -1.49551        1.81849       -0.30425
H          0.26240        1.97393       -0.22941
