13
id_973_cb.log	Energy: -974576.2473761
C         -0.91172       -0.21518        0.71382
H         -0.97485       -1.26852        1.00974
H         -0.92940        0.39173        1.62419
C         -2.10202        0.14848       -0.16747
H         -2.03253       -0.37878       -1.12791
H         -2.08717        1.22015       -0.38110
N         -3.32818       -0.15264        0.57488
H         -3.42260       -1.16694        0.62291
H         -4.11707        0.16055        0.01183
C          0.45208       -0.02279        0.06845
Cl         0.69124        1.67720       -0.43883
Cl         1.73402       -0.44370        1.24728
Cl         0.64714       -1.07778       -1.36566
