55
id_928_cb.log	Energy: -798363.3753357
C          0.75867        4.16701       -0.79807
H          1.39673        4.40711       -1.65777
H          1.39824        4.11674        0.08927
H          0.06258        5.00012       -0.65444
C          0.00374        2.85850       -1.02869
H         -0.75009        3.01047       -1.81141
H         -0.54979        2.59139       -0.11680
C          0.89871        1.68318       -1.43483
H          1.36978        1.90418       -2.40468
H          0.26105        0.80164       -1.59003
C          1.98552        1.36472       -0.40778
H          1.51360        1.13041        0.55834
H          2.59644        2.25952       -0.24386
C          2.92253        0.21087       -0.79101
C          3.89389       -0.13434        0.34624
H          3.31898       -0.50587        1.20578
H          4.53391       -0.96232        0.01456
C          4.77366        1.03309        0.78976
H          5.28655        1.48439       -0.06849
H          5.53800        0.69606        1.49762
H          4.19149        1.81787        1.28316
C          2.14778       -1.02801       -1.22009
H          2.82933       -1.87301       -1.38064
H          1.59421       -0.84755       -2.14830
O          1.22124       -1.36440       -0.17404
P          0.09286       -2.49945       -0.47730
O         -0.77181       -2.05358       -1.63406
O          0.74928       -3.85875       -0.53588
O         -0.72694       -2.42453        0.91995
C         -1.83952       -1.52015        1.06990
H         -2.47250       -1.60864        0.18312
H         -2.39801       -1.89796        1.93379
C         -1.42266       -0.07389        1.31761
C         -0.46567        0.01528        2.51480
H         -0.91504       -0.52144        3.36364
H          0.46084       -0.51616        2.26622
C         -0.12730        1.44309        2.94577
H          0.17753        2.05847        2.09033
H          0.69693        1.44286        3.66689
H         -0.98160        1.93639        3.42028
C         -2.67835        0.78790        1.53178
H         -3.11194        0.53373        2.51070
H         -2.37012        1.83953        1.59251
C         -3.76086        0.66588        0.45266
H         -4.20060       -0.34054        0.46036
H         -4.57915        1.35342        0.70605
C         -3.26884        0.99218       -0.95735
H         -2.85335        2.00876       -0.96331
H         -2.44643        0.31853       -1.23546
C         -4.38255        0.88353       -1.99569
H         -4.78767       -0.13484       -2.02569
H         -4.02282        1.13061       -3.00003
H         -5.20835        1.56407       -1.75701
H          3.51410        0.51678       -1.66797
H         -0.89238        0.29415        0.42495
