23
id_955_ca.log	Energy: -472073.1405664
C         -1.25676        2.51891       -0.24856
H         -0.18115        2.70574       -0.20252
H         -1.76344        3.34661        0.25333
H         -1.57556        2.50902       -1.29537
C         -1.64778        1.23543        0.45469
H         -2.73230        1.14319        0.53293
H         -1.22434        1.17243        1.45913
N         -1.20037        0.00000       -0.28680
C         -1.64778       -1.23543        0.45469
H         -1.22434       -1.17243        1.45913
H         -2.73230       -1.14318        0.53293
C         -1.25676       -2.51891       -0.24856
H         -1.76344       -3.34661        0.25333
H         -0.18115       -2.70574       -0.20252
H         -1.57556       -2.50902       -1.29537
C          0.25350       -0.00000       -0.65441
H          0.42922       -0.88313       -1.26870
H          0.42922        0.88313       -1.26869
C          1.15346       -0.00000        0.56833
H          1.02644       -0.89302        1.18018
H          1.02644        0.89301        1.18018
Cl         2.85644       -0.00000       -0.00481
H         -1.70208        0.00000       -1.18560
