40
id_924_ca.log	Energy: -414784.8517672
C         -2.91223       -1.93353        1.46194
H         -3.15224       -2.42761        2.40915
H         -3.82825       -1.46169        1.08538
H         -2.19071       -1.13654        1.67402
C         -2.35793       -2.92950        0.44689
H         -3.06180       -3.76174        0.32566
H         -1.42099       -3.35984        0.82386
C         -2.10294       -2.30175       -0.93266
H         -3.05202       -1.92075       -1.33030
H         -1.75334       -3.08211       -1.61926
C         -1.09504       -1.17817       -0.88558
C          0.27103       -1.44867       -0.77107
H          0.61264       -2.48364       -0.75929
C          1.22772       -0.43370       -0.67578
C          0.77877        0.89552       -0.69306
C         -0.58111        1.21197       -0.80855
C         -1.49547        0.15990       -0.90357
H         -2.55510        0.39937       -0.99034
C         -1.04100        2.64853       -0.78392
H         -0.39291        3.25988       -1.42206
H         -2.05290        2.69993       -1.20371
C         -1.06424        3.24694        0.63283
H         -0.05129        3.23007        1.05289
H         -1.35750        4.30077        0.55578
C         -2.02342        2.51753        1.56987
H         -2.07082        3.01065        2.54638
H         -1.71042        1.48045        1.73462
H         -3.03770        2.49730        1.15246
O          1.65273        1.96023       -0.60650
H          2.57029        1.64397       -0.60934
C          2.69000       -0.77280       -0.50972
H          2.85773       -1.79143       -0.87813
H          3.32298       -0.12070       -1.12946
C          3.15735       -0.68988        0.95101
H          2.96767        0.31877        1.34059
H          2.55106       -1.37885        1.55210
C          4.63679       -1.03184        1.09431
H          4.95851       -0.98166        2.13948
H          5.25570       -0.33538        0.51706
H          4.83995       -2.04425        0.72679
