38
id_945_ca.log	Energy: -424366.2554376
C          4.35399        1.82567       -0.80684
H          4.76204        2.06367       -1.79202
H          5.18569        1.55175       -0.15368
H          3.87063        2.72509       -0.41290
C          3.35415        0.69823       -0.97069
H          3.83227       -0.24580       -1.23942
H          2.62379        0.94882       -1.74050
N          2.56571        0.44063        0.28652
C          3.42641        0.24248        1.51047
H          3.94980        1.18487        1.67490
H          2.72988        0.09227        2.33684
C          4.39306       -0.91704        1.38109
H          5.11915       -0.75990        0.57927
H          3.87745       -1.86621        1.21593
H          4.94501       -0.99541        2.32105
C          1.59046       -0.68576        0.11227
H          2.15256       -1.55454       -0.23330
H          1.18173       -0.90105        1.10117
C          0.47257       -0.32574       -0.85038
H          0.81642       -0.26716       -1.88967
H          0.03439        0.65159       -0.60764
C         -0.62639       -1.36134       -0.81588
O         -0.50180       -2.41059       -0.20937
C         -1.91181       -1.00642       -1.53521
H         -1.68753       -0.42697       -2.43515
H         -2.41199       -1.93765       -1.81398
C         -2.78004       -0.19471       -0.59267
C         -3.38718       -0.81754        0.50233
H         -3.24763       -1.88537        0.65276
C         -4.16397       -0.08030        1.39162
H         -4.63513       -0.57532        2.23526
C         -4.33703        1.29036        1.19891
H         -4.94400        1.86529        1.89138
C         -3.72904        1.91817        0.11405
H         -3.86002        2.98459       -0.04233
C         -2.95151        1.17875       -0.77618
H         -2.47861        1.66744       -1.62422
H          2.01647        1.29140        0.46824
