16
id_986_cb.log	Energy: -391980.4418906
C         -0.70158       -1.20912        0.00001
H         -1.24627       -2.14679        0.00002
C          0.68841       -1.22147        0.00001
H          1.24222       -2.15290        0.00002
C          1.35377        0.00000        0.00000
C          0.68842        1.22147       -0.00001
H          1.24222        2.15290       -0.00002
C         -0.70158        1.20913       -0.00001
H         -1.24626        2.14680       -0.00002
C         -1.40426        0.00001       -0.00000
C         -2.93131       -0.00001       -0.00000
O         -3.50386       -1.12171        0.00000
O         -3.50386        1.12171       -0.00001
N          2.81816       -0.00000        0.00000
O          3.39947        1.07547       -0.00000
O          3.39947       -1.07547        0.00001
