8
id_91_ca.log	Energy: -237330.2262022
C          0.20662        0.40182       -0.62212
O         -0.38771        0.33778       -1.67077
C         -0.20662       -0.40182        0.62212
O          0.38771       -0.33778        1.67077
O         -1.27066       -1.14380        0.36865
H         -1.51966       -1.64657        1.17070
O          1.27066        1.14380       -0.36865
H          1.51966        1.64657       -1.17070
