23
id_944_ca.log	Energy: -341445.2392389
C          2.41106       -0.77417       -0.57065
H          2.48291       -1.81191       -0.22742
H          3.28131       -0.23057       -0.18697
H          2.47351       -0.77656       -1.66455
Si         0.81327        0.02198        0.01021
C          0.76007        1.81631       -0.55912
H          0.71033        1.87926       -1.65195
H          1.66711        2.34068       -0.23704
H         -0.09480        2.36750       -0.15148
C          0.65673       -0.06014        1.88339
H          1.49897        0.44793        2.36609
H          0.64390       -1.09745        2.23626
H         -0.26361        0.42363        2.23318
C         -0.63065       -0.95569       -0.75480
H         -0.74401       -0.68806       -1.81367
H         -0.34460       -2.01494       -0.73781
C         -1.98015       -0.86599       -0.06255
H         -1.93654       -1.19333        0.97734
H         -2.74681       -1.44463       -0.57908
N         -2.49222        0.54783       -0.03401
H         -2.42675        0.98089       -0.96332
H         -1.96704        1.13706        0.62239
H         -3.47646        0.57605        0.25548
