18
id_93_cb.log	Energy: -530276.2975791
C         -2.53612        0.75430        0.00000
H         -2.62779        1.39923        0.88094
H         -3.37236        0.05078        0.00000
H         -2.62779        1.39923       -0.88094
C         -1.22524        0.01207        0.00000
C         -1.20517       -1.38220        0.00000
H         -2.15043       -1.92229        0.00000
C         -0.00001       -2.13549        0.00000
C          1.20516       -1.38221        0.00000
H          2.15042       -1.92231        0.00000
C          1.22524        0.01207        0.00000
C          0.00000        0.69068        0.00000
Cl         0.00001        2.45667        0.00000
C          2.53613        0.75429        0.00000
H          3.37236        0.05077        0.00000
H          2.62779        1.39922        0.88094
H          2.62779        1.39922       -0.88094
O         -0.00001       -3.44480        0.00000
