35
id_902_ca.log	Energy: -633839.6463457
C         -1.00364       -2.31547        1.86832
H         -1.14482       -2.65281        2.89942
H          0.05309       -2.45515        1.61385
H         -1.60000       -2.97012        1.22522
C         -1.42545       -0.85390        1.74800
H         -0.91309       -0.26037        2.51108
H         -2.49860       -0.75741        1.94597
C         -1.12736       -0.22224        0.36648
C         -1.84513       -0.97915       -0.76035
H         -1.56763       -2.03574       -0.76388
H         -1.57191       -0.57829       -1.74395
C         -3.34432       -0.87590       -0.67302
O         -3.95448       -0.00155       -0.08689
O         -3.95737       -1.84744       -1.36018
H         -4.92458       -1.71224       -1.31634
C          0.38948       -0.18077        0.13981
C          1.02404       -0.93643       -0.85177
H          0.45559       -1.57078       -1.52204
C          2.40719       -0.89887       -1.00234
H          2.89716       -1.48793       -1.76873
C          3.14440       -0.08950       -0.14907
C          2.55100        0.67841        0.84800
H          3.15146        1.30289        1.49898
C          1.17173        0.62210        0.98480
H          0.70069        1.21723        1.76244
N          4.59733       -0.04112       -0.30466
O          5.23892        0.67274        0.45281
O          5.11073       -0.71597       -1.18557
C         -1.59849        1.23754        0.38028
O         -1.86991        1.86881        1.38259
O         -1.62329        1.76712       -0.84236
C         -2.05831        3.13379       -0.93086
H         -2.02155        3.38231       -1.98976
H         -1.38601        3.77822       -0.36133
H         -3.07866        3.22085       -0.55132
