25
id_909_cb.log	Energy: -526155.6159733
C          3.37484       -1.65038       -0.00000
H          4.11441       -2.44692       -0.00001
C          2.00222       -1.97653        0.00000
H          1.68051       -3.01153        0.00000
C          1.06561       -0.96190        0.00000
C          1.44362        0.41601        0.00000
C          2.84779        0.76437       -0.00000
C          3.77802       -0.34114       -0.00001
H          4.83455       -0.08447       -0.00001
O          3.30521        1.95636       -0.00000
C          0.41639        1.44591        0.00000
O          0.65641        2.66158        0.00001
C         -1.03015        1.02647       -0.00000
C         -2.00663        2.01268       -0.00000
H         -1.71442        3.05642       -0.00000
C         -3.35939        1.65383       -0.00000
H         -4.12104        2.42796       -0.00000
C         -3.74197        0.32235       -0.00000
H         -4.78774        0.03096       -0.00000
C         -2.76513       -0.67987       -0.00000
C         -1.39707       -0.33508       -0.00000
C         -0.36232       -1.37262        0.00000
O         -0.67257       -2.57531        0.00000
O         -3.19044       -1.96436        0.00000
H         -2.39009       -2.54294        0.00001
