16
id_960_cb.log	Energy: -134085.4438612
C         -2.45781       -0.35071       -0.00993
H         -3.35392        0.26578        0.10457
H         -2.44521       -1.08210        0.80581
H         -2.53297       -0.89673       -0.95510
C         -1.20537        0.50817        0.02108
H         -1.18065        1.09202        0.95716
H         -1.23220        1.23724       -0.79736
N         -0.00000       -0.30484       -0.14049
H          0.00000       -0.98808        0.61948
C          1.20537        0.50817        0.02108
H          1.23220        1.23724       -0.79737
H          1.18065        1.09203        0.95714
C          2.45781       -0.35071       -0.00992
H          2.44522       -1.08209        0.80583
H          3.35392        0.26578        0.10456
H          2.53297       -0.89675       -0.95509
