14
id_966_ca.log	Energy: -109729.1328734
C          1.30325        0.67152        0.10228
H          1.38436        1.69507       -0.27106
H          2.16741        0.10322       -0.25340
H          1.32052        0.69965        1.19694
C          0.00395        0.06497       -0.39238
H          0.00101       -0.00426       -1.48162
C         -1.22927        0.79639        0.10201
H         -2.14509        0.31524       -0.25322
H         -1.21040        1.82290       -0.27134
H         -1.24353        0.82569        1.19671
N         -0.06877       -1.36128        0.09000
H         -0.08556       -1.39473        1.11685
H          0.74213       -1.90434       -0.22819
H         -0.91702       -1.82676       -0.25313
