13
id_96_cb.log	Energy: -192731.8070888
C          1.46447       -1.05446       -0.35548
H          2.47935       -0.81191       -0.68968
H          1.07729       -1.85445       -0.99567
H          1.52858       -1.43983        0.66772
C          0.58159        0.18768       -0.41374
H          0.58032        0.58659       -1.43455
C          1.10951        1.27709        0.52958
H          1.09869        0.92153        1.56686
H          0.50271        2.18668        0.47124
H          2.14184        1.53777        0.27209
C         -0.87815       -0.09807       -0.04149
O         -1.11971       -1.01497        0.79550
O         -1.76446        0.63999       -0.56691
