14
id_967_ca.log	Energy: -1723169.0258382
C          1.11267        0.88277       -0.31981
H          1.05188        0.67603       -1.39344
H          1.72842        1.78083       -0.18453
C          1.75960       -0.28606        0.40083
H          1.21283       -1.21586        0.24239
H          1.85274       -0.09885        1.47165
N          3.14156       -0.50375       -0.12446
H          3.72703        0.32741        0.01948
H          3.12498       -0.70509       -1.13140
C         -0.26200        1.20228        0.23071
H         -0.70842        2.05326       -0.27904
H         -0.24588        1.37846        1.30569
Br        -1.51408       -0.29054       -0.03986
H          3.59659       -1.29476        0.34508
