26
id_975_ca.log	Energy: -785110.6496913
C          1.34891        3.67280       -0.40381
H          0.43730        4.24751       -0.21404
H          1.44746        3.53745       -1.48551
H          2.20186        4.26135       -0.05744
C          1.30444        2.32471        0.31104
H          1.19240        2.47339        1.39150
H          2.24572        1.79134        0.14490
C          0.13030        1.51324       -0.21117
H          0.26850        1.20545       -1.25099
H         -0.78645        2.10242       -0.14369
N         -0.12396        0.25801        0.58744
C         -1.27782       -0.53617        0.04216
H         -1.07630       -0.73908       -1.01085
H         -1.30389       -1.47370        0.59972
C         -2.58902        0.21422        0.21332
H         -2.67143        1.07797       -0.44342
H         -2.74267        0.51457        1.25114
Cl        -3.92844       -0.89586       -0.23120
C          1.09478       -0.60396        0.78467
H          1.81299       -0.01494        1.35560
H          0.77532       -1.45360        1.39029
C          1.69915       -1.07059       -0.52926
H          2.07526       -0.24651       -1.13558
H          1.01238       -1.68099       -1.11457
Cl         3.11094       -2.10743       -0.13158
H         -0.38767        0.56168        1.53633
