46
id_929_ca.log	Energy: -557732.4648148
C         -5.66468       -0.01888        0.00002
H         -5.54643        0.60562        0.89029
H         -5.54644        0.60563       -0.89024
H         -6.67732       -0.43258        0.00002
C         -4.66470       -1.15062        0.00000
H         -4.75917       -1.77944       -0.88935
H         -4.75917       -1.77946        0.88934
O         -3.34716       -0.55810        0.00000
C         -2.30935       -1.39937       -0.00001
O         -2.45107       -2.61462       -0.00002
C         -0.99538       -0.71582       -0.00001
C          0.15714       -1.49884       -0.00001
H          0.03710       -2.57511       -0.00001
C          1.43134       -0.93358       -0.00000
C          1.50172        0.48167        0.00000
C          0.35142        1.30924       -0.00000
C         -0.88862        0.67606       -0.00001
H         -1.79681        1.26454       -0.00001
C          0.45448        2.84397       -0.00000
C         -0.93459        3.49722       -0.00001
H         -0.80914        4.58507       -0.00000
H         -1.51537        3.22852       -0.88944
H         -1.51538        3.22851        0.88943
C          1.18163        3.33868        1.26404
H          1.19820        4.43498        1.26675
H          0.65155        3.00729        2.16464
H          2.21190        2.98307        1.31879
C          1.18164        3.33867       -1.26404
H          2.21190        2.98307       -1.31879
H          1.19821        4.43498       -1.26675
H          0.65155        3.00729       -2.16464
O          2.69576        1.13988        0.00001
H          3.44398        0.52633       -0.00002
C          2.68403       -1.83027        0.00001
C          2.30566       -3.31875        0.00001
H          1.72983       -3.59463        0.88985
H          3.22579       -3.91209        0.00001
H          1.72983       -3.59464       -0.88983
C          3.52249       -1.60577        1.27544
H          4.38922       -2.27575        1.26090
H          3.90463       -0.58862        1.40410
H          2.92353       -1.84125        2.16184
C          3.52249       -1.60578       -1.27543
H          2.92354       -1.84127       -2.16183
H          3.90464       -0.58863       -1.40410
H          4.38923       -2.27576       -1.26089
