7
id_91_cb.log	Energy: -237055.5955260
C         -0.69737        0.14015        0.00000
O         -1.24349        1.22351        0.00000
C          0.85309       -0.03784        0.00000
O          1.28128       -1.21208        0.00000
O          1.49491        1.03400       -0.00000
O         -1.35943       -1.01737       -0.00000
H         -2.32051       -0.83832       -0.00000
