29
id_914_cb.log	Energy: -434005.5889750
C          5.94490        0.15440       -0.09715
H          6.60660        0.92465       -0.50407
H          6.17560       -0.79514       -0.58945
H          6.14647        0.05549        0.97372
C          4.50465        0.54654       -0.33735
H          4.29650        0.64624       -1.40939
H          4.26664        1.49693        0.15518
O          3.67988       -0.48614        0.20932
C          2.32143       -0.33537        0.11408
C          1.69324        0.75539       -0.49159
H          2.26908        1.55800       -0.93858
C          0.29821        0.81179       -0.52741
H         -0.17592        1.66093       -1.01025
C         -0.49962       -0.19688        0.02494
C          0.16020       -1.28247        0.62678
H         -0.42534       -2.07993        1.07806
C          1.54674       -1.35744        0.67217
H          2.04514       -2.19861        1.14608
C         -1.98295       -0.15668       -0.04986
C         -2.67589       -1.31652       -0.41961
H         -2.09782       -2.20675       -0.66355
C         -4.06744       -1.36426       -0.50599
H         -4.57177       -2.27792       -0.80604
C         -4.79030       -0.20448       -0.20754
H         -5.87665       -0.20799       -0.26927
C         -4.13118        0.95884        0.16978
H         -4.69941        1.85517        0.41156
C         -2.71196        1.03972        0.27242
O         -2.13229        2.14281        0.66117
