20
id_934_ca.log	Energy: -316786.8391919
C         -1.88506       -1.20498        0.22154
H         -2.85859       -0.71564        0.11097
H         -1.84843       -1.66113        1.21648
H         -1.82460       -2.00619       -0.52262
Si        -0.49545        0.02837       -0.00531
C         -0.47782        0.77625       -1.72568
H          0.37024        1.45882       -1.85599
H         -1.39302        1.34970       -1.90883
H         -0.40828       -0.00164       -2.49364
C         -0.50596        1.36840        1.30743
H          0.34454        2.04987        1.18851
H         -0.45718        0.93747        2.31317
H         -1.42033        1.96815        1.24172
C          1.12904       -0.96110        0.19890
H          1.19994       -1.41083        1.19193
H          1.20035       -1.76244       -0.54033
N          2.35423       -0.11172        0.02528
H          2.39096        0.64716        0.71557
H          2.38461        0.32019       -0.90560
H          3.21524       -0.66014        0.13288
