13
id_966_cb.log	Energy: -109433.7945347
C          1.02025        0.99397        0.10972
H          0.79038        1.99994       -0.25815
H          2.02873        0.72981       -0.22675
H          1.02425        1.02451        1.20644
C         -0.00110       -0.02865       -0.38101
H          0.00955       -0.03085       -1.47746
C         -1.40251        0.33537        0.08767
H         -2.13963       -0.38177       -0.28547
H         -1.68421        1.33522       -0.25619
H         -1.44584        0.33068        1.18414
N          0.30461       -1.40210        0.05054
H          0.31398       -1.39555        1.07283
H          1.27077       -1.60147       -0.21149
