37
id_978_ca.log	Energy: -376691.6219656
C          2.17028       -2.70822       -0.30692
H          2.81585       -2.23148       -1.05140
H          1.57284       -3.47925       -0.80133
H          2.79819       -3.18242        0.45093
C          1.27236       -1.67321        0.34347
C          0.40649       -1.00265       -0.71651
H         -0.22941       -1.72369       -1.22899
H          1.05811       -0.53305       -1.45382
N         -0.46407        0.08599       -0.12837
C         -0.29077        1.37887       -0.88795
H         -0.23332        1.12162       -1.94671
H         -1.17313        1.99529       -0.72524
C          0.93790        2.18050       -0.44998
C          0.88580        2.60011        1.01558
H          1.70313        3.29597        1.22070
H          1.01031        1.74327        1.68924
H         -0.06269        3.09351        1.24800
O          2.16297        1.53913       -0.76611
H          2.30664        0.83146       -0.10447
C         -1.94530       -0.31084        0.07821
C         -1.98527       -1.64424        0.82076
H         -3.03349       -1.88377        1.01673
H         -1.46877       -1.57330        1.78386
H         -1.56036       -2.46747        0.24128
C         -2.59113        0.75733        0.96154
H         -2.00473        0.91960        1.87303
H         -3.58045        0.39794        1.25606
H         -2.72894        1.71204        0.44996
C         -2.63723       -0.40706       -1.27457
H         -3.67512       -0.70291       -1.09839
H         -2.17860       -1.16204       -1.91967
H         -2.64532        0.55302       -1.79711
O          2.08480       -0.66575        0.96057
H          1.79612       -0.52803        1.87608
H          0.64920       -2.14333        1.10903
H          0.90365        3.08141       -1.07163
H         -0.11221        0.25306        0.82488
