15
id_972_ca.log	Energy: -156911.7111758
C          1.76085       -0.69889        0.03694
H          2.60783       -0.15347       -0.38699
H          1.78800       -1.72491       -0.33760
H          1.86154       -0.72212        1.12673
C          0.44987       -0.05618       -0.36378
C         -0.76172       -0.75749        0.21663
H         -0.67561       -0.79557        1.31024
H         -0.78714       -1.78394       -0.16747
O         -1.90588       -0.01853       -0.18087
H         -2.63984       -0.26151        0.40388
N          0.40976        1.36384        0.12408
H          1.10782        1.94646       -0.35123
H          0.59697        1.40657        1.13408
H          0.34992        0.00695       -1.44944
H         -0.52488        1.75815       -0.04255
