19
id_987_cb.log	Energy: -158738.0145493
C          2.75530       -0.23623        0.13975
H          3.60794        0.39599       -0.12401
H          2.89211       -1.20762       -0.34724
H          2.78127       -0.39926        1.22276
C          1.43674        0.40636       -0.28249
H          1.42293        0.55550       -1.36862
H          1.35434        1.39654        0.17859
C          0.25322       -0.46504        0.11942
H          0.22094       -0.54066        1.22464
H          0.42072       -1.48086       -0.25919
N         -1.04086       -0.01168       -0.39624
C         -2.05954       -0.97226        0.01282
H         -1.82580       -1.96090       -0.39228
H         -3.03743       -0.66560       -0.36872
H         -2.13273       -1.06031        1.11149
C         -1.38189        1.28972        0.16912
H         -0.69235        2.06017       -0.18237
H         -1.35918        1.28087        1.27400
H         -2.38967        1.57264       -0.14711
