52
id_991_ca.log	Energy: -641143.6813140
C         -1.86524       -3.96303       -1.13298
H         -1.27774       -4.40723       -0.32493
H         -2.06230       -4.73550       -1.88112
H         -2.82226       -3.62117       -0.73213
C         -1.10349       -2.83450       -1.78459
H         -1.68828       -2.32611       -2.55515
H         -0.16563       -3.17934       -2.22537
O         -0.78047       -1.86658       -0.75368
C          0.04591       -0.88280       -1.11239
O          0.46478       -0.75001       -2.24258
C          0.46784        0.01039        0.06501
C         -0.42136       -0.15366        1.32822
H          0.15308        0.27021        2.15902
H         -0.56868       -1.21189        1.56014
C         -1.76428        0.57802        1.37509
C         -2.31394        0.58747        2.79427
H         -2.33587       -0.41836        3.22282
H         -3.31601        1.02052        2.84706
H         -1.65131        1.20412        3.40586
N         -2.78223       -0.01451        0.40819
C         -3.82116        0.98431        0.02421
H         -4.49264        0.51651       -0.69546
H         -3.32234        1.84428       -0.42375
H         -4.37386        1.27988        0.91564
C         -3.41272       -1.27957        0.88212
H         -4.09242       -1.04398        1.70043
H         -2.63893       -1.97263        1.21086
H         -3.96807       -1.70364        0.04570
C          0.46292        1.48487       -0.34750
C         -0.37034        1.97277       -1.35810
H         -0.97623        1.28970       -1.94770
C         -0.44680        3.34100       -1.61755
H         -1.09892        3.69904       -2.40821
C          0.30706        4.24031       -0.86913
H          0.24956        5.30485       -1.07311
C          1.13411        3.76324        0.14682
H          1.72301        4.45500        0.74112
C          1.20870        2.39789        0.40586
H          1.85283        2.03612        1.20316
C          1.90290       -0.48851        0.35134
C          2.93836       -0.11578       -0.51595
H          2.72501        0.54130       -1.35388
C          4.23547       -0.57209       -0.31281
H          5.02460       -0.26499       -0.99209
C          4.52155       -1.41784        0.75915
H          5.53469       -1.77240        0.92080
C          3.49765       -1.80415        1.61673
H          3.70502       -2.46527        2.45242
C          2.19463       -1.34676        1.41318
H          1.41924       -1.66836        2.09902
H         -1.63816        1.60695        1.03089
H         -2.28277       -0.25264       -0.45535
