23
id_954_ca.log	Energy: -1048835.8246016
C          0.73895       -1.14489        0.79472
H          1.57079       -0.78117        1.39968
H          0.20075       -1.90486        1.36274
C          1.22570       -1.70032       -0.53291
H          1.81286       -0.97766       -1.09962
H          0.41350       -2.08785       -1.14768
Cl         2.31516       -3.08014       -0.16925
N         -0.22419        0.00243        0.61848
C          0.33883        1.17518       -0.13892
H          0.47329        0.86381       -1.17631
H         -0.41219        1.96472       -0.09668
C          1.63797        1.66457        0.47920
H          2.46734        0.97733        0.31544
H          1.52368        1.86811        1.54514
Cl         2.08524        3.20819       -0.31964
C         -1.52872       -0.45976        0.02235
H         -1.37891       -0.56731       -1.05334
H         -1.74722       -1.43338        0.46412
C         -2.64905        0.51970        0.33372
H         -2.51635        1.48497       -0.15218
H         -2.77156        0.65459        1.40927
Cl        -4.17847       -0.17135       -0.30079
H         -0.42155        0.33080        1.57572
