38
id_900_ca.log	Energy: -658502.0828524
C          4.49388       -1.35196       -0.83337
H          5.48778       -1.25033       -1.27937
H          3.99757       -2.19725       -1.31932
H          4.63169       -1.59997        0.22549
C          3.71701       -0.05081       -1.01159
H          3.59021        0.16680       -2.07870
H          4.28727        0.77872       -0.58015
C          2.29574       -0.04104       -0.38244
C          1.44981       -1.16007       -1.04312
H          1.61566       -1.07609       -2.12333
H          1.83521       -2.13022       -0.71989
C         -0.03260       -1.09344       -0.77297
C         -0.60691       -1.78761        0.30082
H          0.01378       -2.42883        0.91818
C         -1.95452       -1.64584        0.60428
H         -2.39778       -2.16812        1.44422
C         -2.72360       -0.79877       -0.18892
C         -2.20339       -0.12846       -1.29097
H         -2.83372        0.50760       -1.90200
C         -0.85518       -0.29624       -1.58175
H         -0.43058        0.21832       -2.43980
N         -4.13107       -0.60668        0.14719
O         -4.61237       -1.27761        1.04991
O         -4.77204        0.22349       -0.48326
C          1.70787        1.35970       -0.62592
H          1.49232        1.48274       -1.69160
H          2.45128        2.12330       -0.36425
C          0.47407        1.69491        0.17557
O          0.19259        1.21759        1.26001
O         -0.27004        2.62955       -0.42033
C         -1.46098        3.03121        0.27624
H         -1.20125        3.46996        1.24161
H         -2.11893        2.16949        0.41882
H         -1.93659        3.77139       -0.36462
C          2.47738       -0.30318        1.10523
O          2.19396       -1.33757        1.67783
O          3.08645        0.71444        1.73165
H          3.21383        0.47985        2.67140
