20
id_988_ca.log	Energy: -159033.2358657
C          1.77062       -0.77444       -0.51394
H          1.53596       -1.47276       -1.32336
H          1.89028       -1.33253        0.41867
H          2.72638       -0.29680       -0.74389
C          0.71432        0.31169       -0.39127
H          0.68529        0.89358       -1.31613
C          0.96301        1.23057        0.79228
H          0.18648        1.99106        0.90618
H          1.91161        1.74542        0.61915
H          1.05410        0.66548        1.72419
N         -0.66858       -0.32255       -0.32552
C         -1.75923        0.65687       -0.59657
H         -2.69682        0.10674       -0.67274
H         -1.54310        1.17057       -1.53285
H         -1.80967        1.36546        0.22925
C         -0.94215       -1.06605        0.93740
H         -1.88221       -1.60249        0.81116
H         -1.02926       -0.34814        1.75241
H         -0.13420       -1.77072        1.12826
H         -0.69417       -1.00888       -1.08905
