31
id_993_cb.log	Energy: -257363.8436070
C         -3.67827       -1.30227       -0.27776
H         -4.63924       -0.98532        0.13746
H         -3.59266       -2.38563       -0.14242
H         -3.69585       -1.10076       -1.35452
C         -2.51678       -0.57339        0.39263
H         -2.50130       -0.79770        1.46602
H         -2.66540        0.50821        0.29384
C         -1.18698       -0.98214       -0.22948
H         -1.17243       -0.65054       -1.28442
H         -1.13652       -2.07847       -0.25779
N         -0.00001       -0.51890        0.49606
C         -0.00000        0.93419        0.70427
H         -0.87268        1.18590        1.31692
H          0.87266        1.18589        1.31695
C          0.00002        1.82006       -0.54337
H          0.88075        1.60104       -1.15969
H         -0.88068        1.60104       -1.15973
C          0.00001        3.29623       -0.15640
H          0.88446        3.54294        0.44151
H         -0.88447        3.54293        0.44147
H          0.00003        3.94391       -1.03801
C          1.18697       -0.98214       -0.22948
H          1.13650       -2.07848       -0.25779
H          1.17243       -0.65055       -1.28441
C          2.51677       -0.57341        0.39265
H          2.66540        0.50819        0.29389
H          2.50130       -0.79776        1.46603
C          3.67826       -1.30227       -0.27777
H          4.63923       -0.98535        0.13747
H          3.69585       -1.10071       -1.35452
H          3.59264       -2.38564       -0.14248
