23
id_95_cb.log	Energy: -300973.0082869
C          0.18060        1.25843        0.14895
H          0.65521        2.15778       -0.25883
H          0.29926        1.29191        1.23968
C         -1.30920        1.26297       -0.20031
H         -1.43687        1.29485       -1.29129
H         -1.79931        2.14816        0.22076
C         -1.96820        0.00000        0.33554
H         -1.95228        0.00002        1.42973
C         -1.30919       -1.26297       -0.20028
H         -1.43686       -1.29488       -1.29126
H         -1.79930       -2.14816        0.22081
C          0.18060       -1.25842        0.14898
H          0.65522       -2.15777       -0.25879
H          0.29926       -1.29188        1.23970
C          0.87520        0.00000       -0.39097
H          0.80083       -0.00001       -1.48570
C          2.36078        0.00000       -0.01902
O          3.21096       -0.00003       -0.95697
O          2.65499        0.00003        1.21137
N         -3.42055       -0.00001       -0.04489
H         -3.90083        0.83011        0.32173
H         -3.90083       -0.83012        0.32175
H         -3.53083       -0.00002       -1.06643
