56
id_928_ca.log	Energy: -798638.5547853
C          0.63577        4.15554       -0.90666
H          1.26224        4.38682       -1.77715
H          1.27956        4.15779       -0.02100
H         -0.08741        4.96936       -0.78877
C         -0.07627        2.81571       -1.08886
H         -0.83556        2.91546       -1.87463
H         -0.61959        2.56308       -0.16685
C          0.85624        1.65723       -1.45705
H          1.33114        1.86848       -2.42712
H          0.24566        0.75396       -1.59733
C          1.93999        1.39544       -0.41069
H          1.46444        1.14290        0.54888
H          2.50661        2.31765       -0.24183
C          2.93792        0.28650       -0.77160
C          3.90345       -0.01174        0.38382
H          3.33079       -0.40887        1.23345
H          4.58859       -0.80794        0.06527
C          4.71633        1.19836        0.83978
H          5.22103        1.67309       -0.01049
H          5.48368        0.89957        1.56122
H          4.08748        1.95368        1.32160
C          2.23308       -0.98553       -1.21367
H          2.94180       -1.80898       -1.34980
H          1.67118       -0.83871       -2.14018
O          1.30569       -1.36346       -0.15959
P          0.11806       -2.37146       -0.46714
O         -0.69073       -2.05899       -1.67373
O          0.76404       -3.82483       -0.58039
H          1.42177       -4.03440        0.10981
O         -0.67127       -2.39485        0.90833
C         -1.82275       -1.52273        1.09594
H         -2.47100       -1.64380        0.22495
H         -2.32936       -1.92979        1.97550
C         -1.42910       -0.07018        1.32484
C         -0.45009        0.04720        2.50189
H         -0.86888       -0.49559        3.36194
H          0.48435       -0.46195        2.23605
C         -0.13986        1.48592        2.91687
H          0.12695        2.10476        2.05140
H          0.70161        1.51073        3.61720
H         -0.99543        1.95788        3.41014
C         -2.70017        0.76482        1.55373
H         -3.11045        0.50898        2.54179
H         -2.41143        1.82229        1.60043
C         -3.79619        0.60995        0.49276
H         -4.21610       -0.40472        0.51711
H         -4.62360        1.28347        0.75313
C         -3.33273        0.93310       -0.92764
H         -2.93576        1.95677       -0.94821
H         -2.50254        0.27244       -1.21461
C         -4.46108        0.79597       -1.94655
H         -4.84968       -0.22913       -1.96070
H         -4.12172        1.03980       -2.95870
H         -5.29398        1.46498       -1.70039
H          3.52841        0.61386       -1.64108
H         -0.92473        0.30162        0.41786
