25
id_910_cb.log	Energy: -526155.5391598
C          3.70229        1.04071       -0.02254
H          4.63067        1.60581       -0.03146
C          2.46950        1.72825        0.00105
H          2.44068        2.81200        0.00716
C          1.29263        1.00836        0.01529
C          1.28104       -0.42108        0.01009
C          2.53736       -1.13987       -0.02734
C          3.73356       -0.32819       -0.03733
H          4.67977       -0.86321       -0.05894
O          2.65403       -2.40998       -0.05590
C          0.01594       -1.13024        0.04306
O         -0.06048       -2.38009        0.09041
C         -1.25651       -0.35842        0.01515
C         -1.26151        1.05036        0.00323
C         -2.44915        1.77201       -0.03195
H         -2.41810        2.85602       -0.04016
C         -3.66792        1.09063       -0.05788
H         -4.60033        1.64587       -0.08858
C         -3.69413       -0.29494       -0.04377
H         -4.63146       -0.84289       -0.06213
C         -2.49923       -1.02544       -0.00439
O         -2.60461       -2.37604        0.00992
H         -1.67594       -2.72721        0.04596
C          0.02662        1.78992        0.03222
O          0.03503        3.01876        0.06293
