14
id_936_ca.log	Energy: -109717.5747997
C          0.24201       -1.36872       -0.90446
H          1.27210       -1.42814       -1.25419
H         -0.45202       -1.54035       -1.72629
H          0.06885       -2.08451       -0.10007
N          0.00497       -0.00325       -0.35839
C          0.96417        0.31213        0.73621
H          1.97749        0.22125        0.34665
H          0.79871       -0.40290        1.54290
H          0.77550        1.32846        1.08052
C         -1.40342        0.15770        0.09912
H         -1.57627       -0.55066        0.91003
H         -2.06713       -0.05124       -0.73916
H         -1.53932        1.18050        0.44873
H          0.16495        0.66902       -1.11716
