28
id_938_ca.log	Energy: -279440.9206177
C         -2.11804       -1.87911       -1.03315
H         -2.93074       -1.23285       -1.37358
H         -2.51438       -2.89189       -0.92856
H         -1.33499       -1.89554       -1.79705
C         -1.54871       -1.44410        0.30272
H         -0.75785       -2.12554        0.61890
H         -2.30501       -1.40087        1.09038
N         -0.94522       -0.06812        0.22909
C         -1.99997        1.00607        0.26516
H         -2.86891        0.61957       -0.26814
H         -2.26674        1.13278        1.31731
C         -1.51237        2.29178       -0.37399
H         -1.24343        2.12363       -1.42099
H         -0.65197        2.71870        0.14717
H         -2.32386        3.02273       -0.34203
C          0.07693        0.14750        1.31046
H          0.21570        1.22430        1.41542
H         -0.36235       -0.24069        2.23153
C          1.40397       -0.51873        0.99835
H          1.30551       -1.60020        0.84052
H          2.06498       -0.40448        1.86423
C          2.08982        0.06554       -0.21780
O          1.48667        0.80783       -0.97993
C          3.52496       -0.31070       -0.43350
H          3.86197        0.01799       -1.41708
H          3.65151       -1.39225       -0.32603
H          4.13275        0.16641        0.34355
H         -0.44861        0.02289       -0.66935
