17
id_959_cb.log	Energy: -181265.0207030
C         -0.94637        1.36567        0.19421
H         -1.28930        1.38088        1.24331
H         -1.70987        1.84619       -0.42332
H         -0.03301        1.96106        0.11822
N         -0.71967        0.00589       -0.28925
C         -1.98891       -0.71371       -0.30643
H         -1.83416       -1.73368       -0.66895
H         -2.69263       -0.21064       -0.97531
H         -2.44557       -0.76871        0.69672
C          0.21904       -0.70455        0.58258
H         -0.13250       -0.71983        1.62992
H          0.27512       -1.74109        0.23321
C          1.60875       -0.09048        0.52538
H          2.31775       -0.74539        1.03969
H          1.62707        0.88129        1.03686
O          2.04387        0.04492       -0.82046
H          1.24876        0.30771       -1.31639
