16
id_950_cb.log	Energy: -227722.0389310
C          2.36275        1.08530        0.13094
H          2.03468        1.90054       -0.51924
H          3.38243        0.79497       -0.11771
H          2.31452        1.43942        1.16403
C          1.44682       -0.08934       -0.03777
O          1.78422       -1.20192       -0.39103
O          0.17758        0.22404        0.25214
C         -0.79011       -0.83490        0.11629
H         -0.75584       -1.21321       -0.91051
H         -0.52944       -1.64634        0.80231
C         -2.14448       -0.23764        0.43700
H         -2.13149        0.14164        1.46337
H         -2.88329       -1.04302        0.40008
N         -2.56722        0.84047       -0.45599
H         -2.56954        0.47417       -1.40830
H         -1.83584        1.55103       -0.44972
