49
id_990_ca.log	Energy: -616486.2673460
C          2.56982       -3.53487       -1.03800
H          2.92182       -4.22789       -1.80677
H          2.01818       -4.10473       -0.28530
H          3.44100       -3.07301       -0.56768
C          1.67931       -2.50026       -1.68173
H          0.83108       -2.95603       -2.19748
H          2.22115       -1.86687       -2.38825
O          1.15328       -1.65345       -0.62774
C          0.25649       -0.74161       -1.00778
O         -0.06339       -0.57388       -2.16543
C         -0.37509        0.00950        0.17445
C          0.45318       -0.09641        1.48188
H          0.67902       -1.14159        1.70371
H         -0.19462        0.26342        2.28858
C          1.71162        0.75460        1.58927
H          2.06500        0.75874        2.62286
H          1.51912        1.78560        1.28887
N          2.88348        0.27971        0.77159
C          3.88612        1.37373        0.62869
H          4.19713        1.67826        1.62881
H          3.41664        2.20513        0.10281
H          4.73612        0.99308        0.06337
C          3.51271       -0.93860        1.35399
H          2.76532       -1.72568        1.44231
H          3.90698       -0.67096        2.33529
H          4.31978       -1.25520        0.69383
C         -1.73542       -0.70774        0.33263
C         -2.01438       -1.56645        1.39716
H         -1.28531       -1.74318        2.17930
C         -3.24860       -2.21415        1.48035
H         -3.44715       -2.87386        2.31929
C         -4.21460       -2.01894        0.50015
H         -5.17321       -2.52373        0.56725
C         -3.94099       -1.16830       -0.57154
H         -4.68529       -1.00713       -1.34517
C         -2.71383       -0.52170       -0.65387
H         -2.50922        0.13820       -1.49172
C         -0.56359        1.48872       -0.17243
C          0.31088        2.15853       -1.03439
H          1.10142        1.61344       -1.54441
C          0.18847        3.53063       -1.24635
H          0.87476        4.03050       -1.92287
C         -0.80694        4.25460       -0.59514
H         -0.90545        5.32236       -0.76373
C         -1.67271        3.59849        0.27771
H         -2.44833        4.15307        0.79676
C         -1.54918        2.22768        0.48881
H         -2.22813        1.72647        1.17345
H          2.55923        0.03761       -0.17206
