14
id_96_ca.log	Energy: -193016.7657081
C          1.57482       -1.02138       -0.24651
H          2.58062       -0.73886       -0.57103
H          1.24437       -1.87260       -0.84916
H          1.63016       -1.33999        0.79967
C          0.63821        0.16989       -0.39924
H          0.61056        0.49636       -1.44539
C          1.08487        1.35602        0.46983
H          1.06801        1.08032        1.53004
H          0.44296        2.22893        0.32447
H          2.10950        1.63245        0.20451
C         -0.77634       -0.19888       -0.02665
O         -1.11416       -1.20698        0.56786
O         -1.66785        0.73433       -0.40121
H         -2.55950        0.46070       -0.11087
