26
id_911_ca.log	Energy: -526445.2920657
C         -3.54441       -1.25132       -0.00000
H         -4.40482       -1.91323       -0.00000
C         -2.25281       -1.75313       -0.00000
H         -2.08898       -2.82604       -0.00000
C         -1.15044       -0.89090        0.00000
C         -1.36627        0.49729        0.00000
C         -2.65934        1.00929        0.00000
H         -2.82541        2.08278        0.00000
C         -3.74641        0.13368       -0.00000
O         -5.03167        0.57612       -0.00000
H         -5.05878        1.54907        0.00000
C         -0.21739        1.45236        0.00000
O         -0.41281        2.66352       -0.00000
C          1.15044        0.89090        0.00000
C          2.25281        1.75313        0.00000
H          2.08898        2.82604        0.00000
C          3.54441        1.25132        0.00000
H          4.40482        1.91323        0.00000
C          3.74641       -0.13368       -0.00000
C          2.65934       -1.00929       -0.00000
H          2.82541       -2.08278       -0.00000
C          1.36627       -0.49729        0.00000
C          0.21739       -1.45236        0.00001
O          0.41281       -2.66352        0.00000
O          5.03167       -0.57612       -0.00000
H          5.05878       -1.54907       -0.00000
