22
id_94_cb.log	Energy: -300680.7131984
C         -0.10955       -1.24266        1.03249
H          0.33971       -1.24828        2.03519
H         -0.71275       -2.15100        0.94643
C          1.00802       -1.23959       -0.01412
H          0.57112       -1.27998       -1.02398
H          1.64116       -2.12918        0.09866
C          1.87459        0.01873        0.08372
H          2.36213        0.02277        1.06890
C          1.00379        1.26760       -0.02175
H          1.62742        2.16161        0.09738
H          0.57312        1.30626       -1.03447
C         -0.12200        1.26322        1.01603
H         -0.73456        2.16369        0.91465
H          0.32115        1.28774        2.02106
C         -0.99206        0.00511        0.90500
H         -1.71667        0.00784        1.73282
C         -1.86579       -0.01131       -0.36781
O         -2.22199        1.09787       -0.86160
O         -2.23271       -1.13417       -0.82149
N          2.94242        0.07357       -0.92507
H          2.50201        0.05672       -1.84698
H          3.48477       -0.78933       -0.87086
