37
id_948_ca.log	Energy: -317028.1868198
C          2.39053        2.35787       -0.35064
H          1.38129        2.75409       -0.49079
H          3.07736        2.96926       -0.94071
H          2.66554        2.45541        0.70391
C          2.51645        0.91667       -0.80238
H          3.53623        0.55793       -0.65975
H          2.23959        0.77592       -1.84969
N          1.61383        0.00752       -0.00980
C          2.09383       -1.42068       -0.04827
H          1.24603       -2.04864        0.23073
H          2.34692       -1.62283       -1.09177
C          3.26016       -1.64919        0.89168
H          4.13538       -1.05192        0.62544
H          3.54372       -2.70318        0.84132
H          2.97467       -1.42127        1.92293
C          0.18488        0.11321       -0.46158
H          0.03434        1.12455       -0.84294
H          0.07342       -0.59135       -1.29007
C         -0.76838       -0.17462        0.70079
H         -0.57294        0.55459        1.49384
H         -0.55337       -1.15810        1.12801
N         -2.18424       -0.11994        0.35601
C         -2.60414        1.19942       -0.13554
H         -2.20506        1.39661       -1.14606
H         -3.69366        1.16026       -0.24321
C         -2.23351        2.35218        0.78465
H         -1.15657        2.54957        0.78715
H         -2.55012        2.15208        1.81317
H         -2.73405        3.26311        0.44473
C         -2.56944       -1.13151       -0.63706
H         -3.65944       -1.07629       -0.73267
H         -2.16292       -0.88891       -1.63459
C         -2.17057       -2.55078       -0.26404
H         -2.49342       -2.79602        0.75273
H         -1.08894       -2.70729       -0.33024
H         -2.64699       -3.25455       -0.95232
H          1.65702        0.31846        0.97155
