30
id_918_cb.log	Energy: -695051.0886793
C          4.37322       -0.67648       -0.43612
H          5.39041       -0.99725       -0.64138
C          3.45289       -0.56822       -1.48068
H          3.75155       -0.80319       -2.49794
C          2.14766       -0.15584       -1.22193
H          1.43952       -0.07587       -2.04306
C          1.75848        0.14969        0.08850
C          2.68219        0.04231        1.13264
H          2.38131        0.28368        2.14832
C          3.98832       -0.37085        0.86871
H          4.70303       -0.45215        1.68231
P          0.06642        0.67149        0.49166
O         -0.03538        1.17709        1.91874
C         -0.39239        1.91613       -0.75369
H          0.30680        2.74856       -0.62251
H         -0.26319        1.48542       -1.75063
C         -1.84049        2.37821       -0.54214
O         -2.73210        1.80831       -1.22724
O         -2.03306        3.27869        0.31839
C         -1.01795       -0.75973        0.22439
C         -1.25816       -1.27745       -1.05507
H         -0.80900       -0.81753       -1.93211
C         -2.08734       -2.38547       -1.21072
H         -2.27542       -2.78253       -2.20382
C         -2.67897       -2.98020       -0.09370
H         -3.32703       -3.84277       -0.21907
C         -2.44213       -2.46573        1.18006
H         -2.90355       -2.92454        2.04950
C         -1.61155       -1.35594        1.34056
H         -1.42889       -0.94934        2.33147
